
     RDKit          3D

 35 36  0  0  0  0  0  0  0  0999 V2000
    1.2459   -0.7340    1.6324 C   0  0  0  0  0  0  0  0  0  0  0  0
    2.7144   -0.7978    1.3087 C   0  0  0  0  0  0  0  0  0  0  0  0
    3.3976   -1.7778    1.2662 O   0  0  0  0  0  0  0  0  0  0  0  0
    3.1972    0.4762    1.0653 O   0  0  0  0  0  0  0  0  0  0  0  0
    4.5460    0.6896    0.7745 C   0  0  0  0  0  0  0  0  0  0  0  0
    5.1290    0.0255   -0.3076 C   0  0  0  0  0  0  0  0  0  0  0  0
    6.4641    0.2646   -0.6304 C   0  0  0  0  0  0  0  0  0  0  0  0
    7.2168    1.1646    0.1302 C   0  0  0  0  0  0  0  0  0  0  0  0
    6.6252    1.8220    1.2050 C   0  0  0  0  0  0  0  0  0  0  0  0
    5.2782    1.6103    1.5508 C   0  0  0  0  0  0  0  0  0  0  0  0
    4.7871    2.4064    2.7454 C   0  0  0  0  0  0  0  0  0  0  0  0
    5.5881    2.9457    3.4924 O   0  0  0  0  0  0  0  0  0  0  0  0
    3.4254    2.5090    2.8907 N   0  0  0  0  0  0  0  0  0  0  0  0
    2.6996    3.2007    3.8751 C   0  0  0  0  0  0  0  0  0  0  0  0
    3.2846    3.8983    4.9461 C   0  0  0  0  0  0  0  0  0  0  0  0
    2.4647    4.5455    5.8714 C   0  0  0  0  0  0  0  0  0  0  0  0
    1.0636    4.5416    5.7947 C   0  0  0  0  0  0  0  0  0  0  0  0
    0.2093    5.2509    6.8113 C   0  0  0  0  0  0  0  0  0  0  0  0
    0.5096    3.8374    4.7114 C   0  0  0  0  0  0  0  0  0  0  0  0
   -1.2348    3.7704    4.5174 Cl  0  0  0  0  0  0  0  0  0  0  0  0
    1.2970    3.1809    3.7683 C   0  0  0  0  0  0  0  0  0  0  0  0
    0.8500   -1.7517    1.7287 H   0  0  0  0  0  0  0  0  0  0  0  0
    0.7044   -0.1852    0.8472 H   0  0  0  0  0  0  0  0  0  0  0  0
    1.0970   -0.1916    2.5798 H   0  0  0  0  0  0  0  0  0  0  0  0
    4.5349   -0.6819   -0.8859 H   0  0  0  0  0  0  0  0  0  0  0  0
    6.9150   -0.2577   -1.4777 H   0  0  0  0  0  0  0  0  0  0  0  0
    8.2643    1.3531   -0.1156 H   0  0  0  0  0  0  0  0  0  0  0  0
    7.1897    2.5235    1.8212 H   0  0  0  0  0  0  0  0  0  0  0  0
    2.8732    2.0116    2.2002 H   0  0  0  0  0  0  0  0  0  0  0  0
    4.3669    3.9254    5.0390 H   0  0  0  0  0  0  0  0  0  0  0  0
    2.9375    5.0827    6.6984 H   0  0  0  0  0  0  0  0  0  0  0  0
    0.8321    5.7383    7.5749 H   0  0  0  0  0  0  0  0  0  0  0  0
   -0.4760    4.5519    7.3184 H   0  0  0  0  0  0  0  0  0  0  0  0
   -0.4231    6.0201    6.3382 H   0  0  0  0  0  0  0  0  0  0  0  0
    0.8098    2.6578    2.9426 H   0  0  0  0  0  0  0  0  0  0  0  0
  1  2  1  0
  1 22  1  0
  1 23  1  0
  1 24  1  0
  2  3  2  0
  2  4  1  0
  4  5  1  0
  5  6  2  0
  5 10  1  0
  6  7  1  0
  6 25  1  0
  7  8  2  0
  7 26  1  0
  8  9  1  0
  8 27  1  0
  9 10  2  0
  9 28  1  0
 10 11  1  0
 11 12  2  0
 11 13  1  0
 13 14  1  0
 13 29  1  0
 14 15  2  0
 14 21  1  0
 15 16  1  0
 15 30  1  0
 16 17  2  0
 16 31  1  0
 17 18  1  0
 17 19  1  0
 18 32  1  0
 18 33  1  0
 18 34  1  0
 19 20  1  0
 19 21  2  0
 21 35  1  0
M  END

