
     RDKit          3D

 49 50  0  0  0  0  0  0  0  0999 V2000
    2.5054    1.3659   -1.0715 C   0  0  0  0  0  0  0  0  0  0  0  0
    2.3393    0.1864   -0.3019 O   0  0  0  0  0  0  0  0  0  0  0  0
    3.1758   -0.8587   -0.4849 C   0  0  0  0  0  0  0  0  0  0  0  0
    4.2744   -0.8407   -1.3546 C   0  0  0  0  0  0  0  0  0  0  0  0
    5.0713   -1.9772   -1.5683 C   0  0  0  0  0  0  0  0  0  0  0  0
    6.2998   -1.8901   -2.4175 C   0  0  0  0  0  0  0  0  0  0  0  0
    7.3007   -2.5365   -2.2463 O   0  0  0  0  0  0  0  0  0  0  0  0
    6.1691   -0.9437   -3.3831 O   0  0  0  0  0  0  0  0  0  0  0  0
    7.1809   -0.8761   -4.4135 C   0  0  1  0  0  0  0  0  0  0  0  0
    6.6390   -1.4779   -5.6975 C   0  0  0  0  0  0  0  0  0  0  0  0
    7.6235    0.5877   -4.5940 C   0  0  0  0  0  0  0  0  0  0  0  0
    7.8822    1.0340   -5.6955 O   0  0  0  0  0  0  0  0  0  0  0  0
    7.7485    1.2826   -3.4178 N   0  0  0  0  0  0  0  0  0  0  0  0
    8.2119    2.5898   -3.2180 C   0  0  0  0  0  0  0  0  0  0  0  0
    8.5776    3.4658   -4.2555 C   0  0  0  0  0  0  0  0  0  0  0  0
    9.0382    4.7495   -3.9558 C   0  0  0  0  0  0  0  0  0  0  0  0
    9.1548    5.1845   -2.6334 C   0  0  0  0  0  0  0  0  0  0  0  0
    8.8035    4.3222   -1.5918 C   0  0  0  0  0  0  0  0  0  0  0  0
    8.3303    3.0472   -1.8885 C   0  0  0  0  0  0  0  0  0  0  0  0
    8.0312    2.1315   -0.8666 O   0  0  0  0  0  0  0  0  0  0  0  0
    6.9094    2.3124   -0.1188 C   0  0  1  0  0  0  0  0  0  0  0  0
    6.9072    3.4913    0.5369 F   0  0  0  0  0  0  0  0  0  0  0  0
    5.7968    2.3137   -0.9117 F   0  0  0  0  0  0  0  0  0  0  0  0
    4.7249   -3.1530   -0.8873 C   0  0  0  0  0  0  0  0  0  0  0  0
    5.3817   -4.4459   -1.1661 N   0  0  0  0  0  0  0  0  0  0  0  0
    5.5728   -4.7312   -2.3343 O   0  0  0  0  0  0  0  0  0  0  0  0
    5.6267   -5.1607   -0.2088 O   0  0  0  0  0  0  0  0  0  0  0  0
    3.6752   -3.1772    0.0254 C   0  0  0  0  0  0  0  0  0  0  0  0
    2.8904   -2.0430    0.2495 C   0  0  0  0  0  0  0  0  0  0  0  0
    1.8576   -2.1822    1.1066 O   0  0  0  0  0  0  0  0  0  0  0  0
    1.4926   -1.1465    2.0138 C   0  0  0  0  0  0  0  0  0  0  0  0
    1.6851    2.0363   -0.7845 H   0  0  0  0  0  0  0  0  0  0  0  0
    2.4351    1.1518   -2.1520 H   0  0  0  0  0  0  0  0  0  0  0  0
    3.4682    1.8571   -0.8609 H   0  0  0  0  0  0  0  0  0  0  0  0
    4.5325    0.0723   -1.8871 H   0  0  0  0  0  0  0  0  0  0  0  0
    8.0549   -1.4478   -4.0590 H   0  0  0  0  0  0  0  0  0  0  0  0
    5.7270   -0.9533   -6.0185 H   0  0  0  0  0  0  0  0  0  0  0  0
    6.4091   -2.5423   -5.5452 H   0  0  0  0  0  0  0  0  0  0  0  0
    7.3884   -1.3804   -6.4942 H   0  0  0  0  0  0  0  0  0  0  0  0
    7.5057    0.7861   -2.5686 H   0  0  0  0  0  0  0  0  0  0  0  0
    8.4957    3.1199   -5.2831 H   0  0  0  0  0  0  0  0  0  0  0  0
    9.3158    5.4159   -4.7760 H   0  0  0  0  0  0  0  0  0  0  0  0
    9.5246    6.1870   -2.4077 H   0  0  0  0  0  0  0  0  0  0  0  0
    8.8981    4.6236   -0.5486 H   0  0  0  0  0  0  0  0  0  0  0  0
    6.8410    1.4844    0.6030 H   0  0  0  0  0  0  0  0  0  0  0  0
    3.4358   -4.0948    0.5621 H   0  0  0  0  0  0  0  0  0  0  0  0
    0.9189   -1.6363    2.8128 H   0  0  0  0  0  0  0  0  0  0  0  0
    0.8739   -0.3782    1.5305 H   0  0  0  0  0  0  0  0  0  0  0  0
    2.3836   -0.6681    2.4538 H   0  0  0  0  0  0  0  0  0  0  0  0
  1  2  1  0
  1 32  1  0
  1 33  1  0
  1 34  1  0
  2  3  1  0
  3  4  2  0
  3 29  1  0
  4  5  1  0
  4 35  1  0
  5  6  1  0
  5 24  2  0
  6  7  2  0
  6  8  1  0
  8  9  1  0
  9 10  1  0
  9 11  1  0
  9 36  1  1
 10 37  1  0
 10 38  1  0
 10 39  1  0
 11 12  2  0
 11 13  1  0
 13 14  1  0
 13 40  1  0
 14 15  2  0
 14 19  1  0
 15 16  1  0
 15 41  1  0
 16 17  2  0
 16 42  1  0
 17 18  1  0
 17 43  1  0
 18 19  2  0
 18 44  1  0
 19 20  1  0
 20 21  1  0
 21 22  1  0
 21 23  1  0
 21 45  1  1
 24 25  1  0
 24 28  1  0
 25 26  2  0
 25 27  1  0
 28 29  2  0
 28 46  1  0
 29 30  1  0
 30 31  1  0
 31 47  1  0
 31 48  1  0
 31 49  1  0
M  CHG  2  25   1  27  -1
M  END

