
     RDKit          3D

 61 63  0  0  0  0  0  0  0  0999 V2000
   10.2928    4.9126   -2.6050 C   0  0  0  0  0  0  0  0  0  0  0  0
    9.2743    3.9989   -2.2639 O   0  0  0  0  0  0  0  0  0  0  0  0
    8.9499    3.8227   -0.9577 C   0  0  0  0  0  0  0  0  0  0  0  0
    9.5419    4.5115    0.1085 C   0  0  0  0  0  0  0  0  0  0  0  0
    9.1713    4.2352    1.4296 C   0  0  0  0  0  0  0  0  0  0  0  0
    8.1898    3.2806    1.7028 C   0  0  0  0  0  0  0  0  0  0  0  0
    7.8296    3.0079    3.0587 N   0  0  0  0  0  0  0  0  0  0  0  0
    6.4757    3.7929    3.7504 S   0  0  1  0  0  0  0  0  0  0  0  0
    5.5203    4.1817    2.7098 O   0  0  0  0  0  0  0  0  0  0  0  0
    6.0917    2.9131    4.8574 O   0  0  0  0  0  0  0  0  0  0  0  0
    7.1776    5.2971    4.4254 C   0  0  0  0  0  0  0  0  0  0  0  0
    6.9556    6.5130    3.7755 C   0  0  0  0  0  0  0  0  0  0  0  0
    7.5012    7.6785    4.3170 C   0  0  0  0  0  0  0  0  0  0  0  0
    8.2601    7.6474    5.4991 C   0  0  0  0  0  0  0  0  0  0  0  0
    8.8320    8.9242    6.0776 C   0  0  0  0  0  0  0  0  0  0  0  0
    7.8085    9.8107    6.8166 C   0  0  0  0  0  0  0  0  0  0  0  0
    7.2466    9.1781    8.0912 C   0  0  0  0  0  0  0  0  0  0  0  0
    6.3013   10.0960    8.8737 C   0  0  1  0  0  0  0  0  0  0  0  0
    4.7415   10.5462    7.9933 S   0  0  0  0  0  0  0  0  0  0  0  0
    3.7439    9.0721    7.9590 C   0  0  0  0  0  0  0  0  0  0  0  0
    4.0143    7.8685    8.6262 C   0  0  0  0  0  0  0  0  0  0  0  0
    3.0914    6.8221    8.5086 C   0  0  0  0  0  0  0  0  0  0  0  0
    1.9603    6.8919    7.8062 N   0  0  0  0  0  0  0  0  0  0  0  0
    1.7112    8.0411    7.1715 C   0  0  0  0  0  0  0  0  0  0  0  0
    2.5576    9.1492    7.2085 C   0  0  0  0  0  0  0  0  0  0  0  0
    6.0934    9.6369   10.3396 C   0  0  0  0  0  0  0  0  0  0  0  0
    5.1574   10.3280   11.0392 N   0  0  0  0  0  0  0  0  0  0  0  0
    6.7803    8.7575   10.8273 O   0  0  0  0  0  0  0  0  0  0  0  0
    8.4556    6.4082    6.1343 C   0  0  0  0  0  0  0  0  0  0  0  0
    7.9174    5.2334    5.6091 C   0  0  0  0  0  0  0  0  0  0  0  0
    7.5772    2.6054    0.6347 C   0  0  0  0  0  0  0  0  0  0  0  0
    7.9486    2.8539   -0.6842 C   0  0  0  0  0  0  0  0  0  0  0  0
    7.3744    2.1192   -1.6790 O   0  0  0  0  0  0  0  0  0  0  0  0
    6.5406    2.8055   -2.6030 C   0  0  0  0  0  0  0  0  0  0  0  0
   10.3917    4.8765   -3.6981 H   0  0  0  0  0  0  0  0  0  0  0  0
   11.2600    4.6358   -2.1486 H   0  0  0  0  0  0  0  0  0  0  0  0
   10.0392    5.9448   -2.3023 H   0  0  0  0  0  0  0  0  0  0  0  0
   10.3171    5.2544   -0.0793 H   0  0  0  0  0  0  0  0  0  0  0  0
    9.6562    4.7554    2.2574 H   0  0  0  0  0  0  0  0  0  0  0  0
    7.7260    2.0204    3.2949 H   0  0  0  0  0  0  0  0  0  0  0  0
    6.3599    6.5332    2.8616 H   0  0  0  0  0  0  0  0  0  0  0  0
    7.3353    8.6320    3.8073 H   0  0  0  0  0  0  0  0  0  0  0  0
    9.2748    9.5179    5.2603 H   0  0  0  0  0  0  0  0  0  0  0  0
    9.6574    8.6754    6.7653 H   0  0  0  0  0  0  0  0  0  0  0  0
    6.9828   10.0681    6.1319 H   0  0  0  0  0  0  0  0  0  0  0  0
    8.3040   10.7650    7.0719 H   0  0  0  0  0  0  0  0  0  0  0  0
    8.0661    8.9124    8.7781 H   0  0  0  0  0  0  0  0  0  0  0  0
    6.7380    8.2307    7.8535 H   0  0  0  0  0  0  0  0  0  0  0  0
    6.7667   11.0961    8.9495 H   0  0  0  0  0  0  0  0  0  0  0  0
    4.9115    7.7184    9.2261 H   0  0  0  0  0  0  0  0  0  0  0  0
    3.2929    5.8740    9.0217 H   0  0  0  0  0  0  0  0  0  0  0  0
    0.7817    8.0909    6.5916 H   0  0  0  0  0  0  0  0  0  0  0  0
    2.2978   10.0585    6.6607 H   0  0  0  0  0  0  0  0  0  0  0  0
    4.5029   10.9378   10.5630 H   0  0  0  0  0  0  0  0  0  0  0  0
    4.9667   10.0364   11.9907 H   0  0  0  0  0  0  0  0  0  0  0  0
    9.0392    6.3633    7.0579 H   0  0  0  0  0  0  0  0  0  0  0  0
    8.0606    4.2748    6.1110 H   0  0  0  0  0  0  0  0  0  0  0  0
    6.7913    1.8703    0.8161 H   0  0  0  0  0  0  0  0  0  0  0  0
    6.1262    2.0427   -3.2770 H   0  0  0  0  0  0  0  0  0  0  0  0
    7.1048    3.5433   -3.1948 H   0  0  0  0  0  0  0  0  0  0  0  0
    5.7077    3.3137   -2.0840 H   0  0  0  0  0  0  0  0  0  0  0  0
  1  2  1  0
  1 35  1  0
  1 36  1  0
  1 37  1  0
  2  3  1  0
  3  4  2  0
  3 32  1  0
  4  5  1  0
  4 38  1  0
  5  6  2  0
  5 39  1  0
  6  7  1  0
  6 31  1  0
  8  7  1  6
  7 40  1  0
  8  9  2  0
  8 10  2  0
  8 11  1  0
 11 12  2  0
 11 30  1  0
 12 13  1  0
 12 41  1  0
 13 14  2  0
 13 42  1  0
 14 15  1  0
 14 29  1  0
 15 16  1  0
 15 43  1  0
 15 44  1  0
 16 17  1  0
 16 45  1  0
 16 46  1  0
 17 18  1  0
 17 47  1  0
 17 48  1  0
 18 19  1  0
 18 26  1  0
 18 49  1  1
 19 20  1  0
 20 21  2  0
 20 25  1  0
 21 22  1  0
 21 50  1  0
 22 23  2  0
 22 51  1  0
 23 24  1  0
 24 25  2  0
 24 52  1  0
 25 53  1  0
 26 27  1  0
 26 28  2  0
 27 54  1  0
 27 55  1  0
 29 30  2  0
 29 56  1  0
 30 57  1  0
 31 32  2  0
 31 58  1  0
 32 33  1  0
 33 34  1  0
 34 59  1  0
 34 60  1  0
 34 61  1  0
M  END

