
     RDKit          3D

 61 64  0  0  0  0  0  0  0  0999 V2000
    2.6040    0.1077    4.5153 C   0  0  0  0  0  0  0  0  0  0  0  0
    3.4855   -0.1069    3.3192 C   0  0  0  0  0  0  0  0  0  0  0  0
    4.4178    0.8470    3.0169 N   0  0  0  0  0  0  0  0  0  0  0  0
    5.1577    0.5233    1.9870 C   0  0  0  0  0  0  0  0  0  0  0  0
    6.2218    1.3805    1.4402 C   0  0  0  0  0  0  0  0  0  0  0  0
    7.0097    0.9882    0.3427 C   0  0  0  0  0  0  0  0  0  0  0  0
    8.0103    1.8274   -0.1484 C   0  0  0  0  0  0  0  0  0  0  0  0
    8.2408    3.0711    0.4484 C   0  0  0  0  0  0  0  0  0  0  0  0
    7.4626    3.4696    1.5413 C   0  0  0  0  0  0  0  0  0  0  0  0
    6.4616    2.6344    2.0349 C   0  0  0  0  0  0  0  0  0  0  0  0
    4.7646   -1.0436    1.3069 S   0  0  0  0  0  0  0  0  0  0  0  0
    3.4921   -1.2112    2.4826 C   0  0  0  0  0  0  0  0  0  0  0  0
    2.7642   -2.5179    2.5498 C   0  0  0  0  0  0  0  0  0  0  0  0
    3.3893   -3.5669    2.4706 O   0  0  0  0  0  0  0  0  0  0  0  0
    1.3977   -2.4833    2.7301 N   0  0  0  0  0  0  0  0  0  0  0  0
    0.5253   -1.3640    2.3780 C   0  0  0  0  0  0  0  0  0  0  0  0
   -0.3286   -1.6874    1.1439 C   0  0  0  0  0  0  0  0  0  0  0  0
   -1.1192   -2.9932    1.3280 C   0  0  1  0  0  0  0  0  0  0  0  0
   -2.0355   -3.3660    0.1244 C   0  0  2  0  0  0  0  0  0  0  0  0
   -2.4174   -4.3821    0.3298 H   0  0  0  0  0  0  0  0  0  0  0  0
   -1.3328   -3.3811   -1.2393 C   0  0  0  0  0  0  0  0  0  0  0  0
   -3.2313   -2.4086    0.0789 C   0  0  0  0  0  0  0  0  0  0  0  0
   -3.1406   -1.2686   -0.3581 O   0  0  0  0  0  0  0  0  0  0  0  0
   -4.4014   -2.9072    0.5788 N   0  0  0  0  0  0  0  0  0  0  0  0
   -5.6168   -2.1076    0.6745 C   0  0  0  0  0  0  0  0  0  0  0  0
   -5.8261   -1.4661    2.0337 C   0  0  0  0  0  0  0  0  0  0  0  0
   -5.0381   -0.3706    2.4274 C   0  0  0  0  0  0  0  0  0  0  0  0
   -5.2022    0.2176    3.6816 C   0  0  0  0  0  0  0  0  0  0  0  0
   -6.1677   -0.2904    4.5581 C   0  0  0  0  0  0  0  0  0  0  0  0
   -6.3794    0.4443    6.1316 Cl  0  0  0  0  0  0  0  0  0  0  0  0
   -6.9662   -1.3745    4.1882 C   0  0  0  0  0  0  0  0  0  0  0  0
   -6.7880   -1.9536    2.9282 C   0  0  0  0  0  0  0  0  0  0  0  0
   -0.1519   -4.1283    1.7068 C   0  0  0  0  0  0  0  0  0  0  0  0
    0.6946   -3.7495    2.9278 C   0  0  0  0  0  0  0  0  0  0  0  0
    3.2190    0.4159    5.3746 H   0  0  0  0  0  0  0  0  0  0  0  0
    2.0463   -0.7984    4.7832 H   0  0  0  0  0  0  0  0  0  0  0  0
    1.8828    0.9214    4.3294 H   0  0  0  0  0  0  0  0  0  0  0  0
    6.8426    0.0182   -0.1331 H   0  0  0  0  0  0  0  0  0  0  0  0
    8.6139    1.5076   -1.0014 H   0  0  0  0  0  0  0  0  0  0  0  0
    9.0251    3.7275    0.0631 H   0  0  0  0  0  0  0  0  0  0  0  0
    7.6380    4.4402    2.0125 H   0  0  0  0  0  0  0  0  0  0  0  0
    5.8470    2.9307    2.8863 H   0  0  0  0  0  0  0  0  0  0  0  0
    1.1346   -0.4734    2.1876 H   0  0  0  0  0  0  0  0  0  0  0  0
   -0.1314   -1.1374    3.2387 H   0  0  0  0  0  0  0  0  0  0  0  0
    0.3418   -1.7795    0.2727 H   0  0  0  0  0  0  0  0  0  0  0  0
   -1.0108   -0.8501    0.9332 H   0  0  0  0  0  0  0  0  0  0  0  0
   -1.7923   -2.8485    2.1964 H   0  0  0  0  0  0  0  0  0  0  0  0
   -1.9937   -3.8096   -2.0090 H   0  0  0  0  0  0  0  0  0  0  0  0
   -0.4137   -3.9856   -1.2146 H   0  0  0  0  0  0  0  0  0  0  0  0
   -1.0788   -2.3599   -1.5556 H   0  0  0  0  0  0  0  0  0  0  0  0
   -4.3965   -3.8281    1.0003 H   0  0  0  0  0  0  0  0  0  0  0  0
   -6.4787   -2.7458    0.4234 H   0  0  0  0  0  0  0  0  0  0  0  0
   -5.5330   -1.3303   -0.0983 H   0  0  0  0  0  0  0  0  0  0  0  0
   -4.2907    0.0235    1.7339 H   0  0  0  0  0  0  0  0  0  0  0  0
   -4.5931    1.0714    3.9834 H   0  0  0  0  0  0  0  0  0  0  0  0
   -7.7189   -1.7566    4.8799 H   0  0  0  0  0  0  0  0  0  0  0  0
   -7.4190   -2.7996    2.6391 H   0  0  0  0  0  0  0  0  0  0  0  0
    0.5233   -4.3540    0.8643 H   0  0  0  0  0  0  0  0  0  0  0  0
   -0.7113   -5.0537    1.9284 H   0  0  0  0  0  0  0  0  0  0  0  0
    1.4458   -4.5193    3.1397 H   0  0  0  0  0  0  0  0  0  0  0  0
    0.0392   -3.6444    3.8127 H   0  0  0  0  0  0  0  0  0  0  0  0
  1  2  1  0
  1 35  1  0
  1 36  1  0
  1 37  1  0
  2  3  2  0
  2 12  1  0
  3  4  1  0
  4  5  1  0
  4 11  2  0
  5  6  2  0
  5 10  1  0
  6  7  1  0
  6 38  1  0
  7  8  2  0
  7 39  1  0
  8  9  1  0
  8 40  1  0
  9 10  2  0
  9 41  1  0
 10 42  1  0
 11 12  1  0
 12 13  2  0
 13 14  1  0
 13 15  1  0
 15 16  1  0
 15 34  1  0
 16 17  1  0
 16 43  1  0
 16 44  1  0
 17 18  1  0
 17 45  1  0
 17 46  1  0
 18 19  1  0
 18 33  1  0
 18 47  1  1
 19 20  1  1
 19 21  1  0
 19 22  1  0
 21 48  1  0
 21 49  1  0
 21 50  1  0
 22 23  2  0
 22 24  1  0
 24 25  1  0
 24 51  1  0
 25 26  1  0
 25 52  1  0
 25 53  1  0
 26 27  2  0
 26 32  1  0
 27 28  1  0
 27 54  1  0
 28 29  2  0
 28 55  1  0
 29 30  1  0
 29 31  1  0
 31 32  2  0
 31 56  1  0
 32 57  1  0
 33 34  1  0
 33 58  1  0
 33 59  1  0
 34 60  1  0
 34 61  1  0
M  CHG  2  11   1  14  -1
M  END

