
     RDKit          3D

 60 62  0  0  0  0  0  0  0  0999 V2000
    6.9378   -3.0297   -7.0658 C   0  0  0  0  0  0  0  0  0  0  0  0
    5.6498   -3.1253   -6.4759 O   0  0  0  0  0  0  0  0  0  0  0  0
    5.5668   -3.6321   -5.2104 C   0  0  0  0  0  0  0  0  0  0  0  0
    5.0217   -2.8379   -4.2002 C   0  0  0  0  0  0  0  0  0  0  0  0
    4.8547   -3.3300   -2.9002 C   0  0  0  0  0  0  0  0  0  0  0  0
    5.2481   -4.6346   -2.5841 C   0  0  0  0  0  0  0  0  0  0  0  0
    5.0818   -5.2058   -1.1878 C   0  0  0  0  0  0  0  0  0  0  0  0
    4.0886   -6.2747   -1.0918 N   0  0  0  0  0  0  0  0  0  0  0  0
    2.6882   -5.9032   -1.0824 C   0  0  0  0  0  0  0  0  0  0  0  0
    4.5330   -7.5845   -1.1057 C   0  0  0  0  0  0  0  0  0  0  0  0
    5.7030   -7.8806   -1.3424 O   0  0  0  0  0  0  0  0  0  0  0  0
    3.5777   -8.5461   -0.8643 N   0  0  0  0  0  0  0  0  0  0  0  0
    3.9640   -9.9373   -0.7545 C   0  0  0  0  0  0  0  0  0  0  0  0
    2.7052  -10.8125   -0.6324 C   0  0  1  0  0  0  0  0  0  0  0  0
    3.0543  -12.3050   -0.4372 C   0  0  0  0  0  0  0  0  0  0  0  0
    3.5544  -12.6135    0.9826 C   0  0  0  0  0  0  0  0  0  0  0  0
    2.5840  -12.0591    2.0337 C   0  0  0  0  0  0  0  0  0  0  0  0
    2.2927  -10.5724    1.7743 C   0  0  0  0  0  0  0  0  0  0  0  0
    1.8048  -10.2911    0.4165 N   0  0  0  0  0  0  0  0  0  0  0  0
    0.3920  -10.6138    0.2078 C   0  0  0  0  0  0  0  0  0  0  0  0
   -0.5553   -9.7580    1.0297 C   0  0  0  0  0  0  0  0  0  0  0  0
   -0.5082   -8.3563    0.9509 C   0  0  0  0  0  0  0  0  0  0  0  0
   -1.3976   -7.5677    1.6828 C   0  0  0  0  0  0  0  0  0  0  0  0
   -2.3540   -8.1680    2.5101 C   0  0  0  0  0  0  0  0  0  0  0  0
   -2.4117   -9.5605    2.5978 C   0  0  0  0  0  0  0  0  0  0  0  0
   -1.5165  -10.3465    1.8632 C   0  0  0  0  0  0  0  0  0  0  0  0
    5.8004   -5.4368   -3.5968 C   0  0  0  0  0  0  0  0  0  0  0  0
    5.9538   -4.9581   -4.8988 C   0  0  0  0  0  0  0  0  0  0  0  0
    6.4613   -5.7293   -5.9005 O   0  0  0  0  0  0  0  0  0  0  0  0
    6.8015   -2.5322   -8.0366 H   0  0  0  0  0  0  0  0  0  0  0  0
    7.3931   -4.0192   -7.2257 H   0  0  0  0  0  0  0  0  0  0  0  0
    7.6158   -2.4156   -6.4443 H   0  0  0  0  0  0  0  0  0  0  0  0
    4.7223   -1.8212   -4.4643 H   0  0  0  0  0  0  0  0  0  0  0  0
    4.4277   -2.6843   -2.1276 H   0  0  0  0  0  0  0  0  0  0  0  0
    4.7970   -4.3998   -0.4905 H   0  0  0  0  0  0  0  0  0  0  0  0
    6.0353   -5.6293   -0.8449 H   0  0  0  0  0  0  0  0  0  0  0  0
    2.5503   -4.9764   -1.6607 H   0  0  0  0  0  0  0  0  0  0  0  0
    2.2919   -5.7281   -0.0621 H   0  0  0  0  0  0  0  0  0  0  0  0
    2.0777   -6.6790   -1.5669 H   0  0  0  0  0  0  0  0  0  0  0  0
    2.7445   -8.3237   -0.3261 H   0  0  0  0  0  0  0  0  0  0  0  0
    4.6549  -10.0957    0.0941 H   0  0  0  0  0  0  0  0  0  0  0  0
    4.5258  -10.2333   -1.6533 H   0  0  0  0  0  0  0  0  0  0  0  0
    2.1603  -10.7023   -1.5846 H   0  0  0  0  0  0  0  0  0  0  0  0
    3.8003  -12.6121   -1.1895 H   0  0  0  0  0  0  0  0  0  0  0  0
    2.1504  -12.9062   -0.6384 H   0  0  0  0  0  0  0  0  0  0  0  0
    4.5523  -12.1666    1.1364 H   0  0  0  0  0  0  0  0  0  0  0  0
    3.6853  -13.7012    1.1083 H   0  0  0  0  0  0  0  0  0  0  0  0
    2.9949  -12.1823    3.0500 H   0  0  0  0  0  0  0  0  0  0  0  0
    1.6417  -12.6355    2.0105 H   0  0  0  0  0  0  0  0  0  0  0  0
    3.2164   -9.9902    1.9384 H   0  0  0  0  0  0  0  0  0  0  0  0
    1.5551  -10.1857    2.4936 H   0  0  0  0  0  0  0  0  0  0  0  0
    0.1527  -11.6808    0.4007 H   0  0  0  0  0  0  0  0  0  0  0  0
    0.1795  -10.4467   -0.8622 H   0  0  0  0  0  0  0  0  0  0  0  0
    0.2356   -7.8823    0.3059 H   0  0  0  0  0  0  0  0  0  0  0  0
   -1.3486   -6.4782    1.6060 H   0  0  0  0  0  0  0  0  0  0  0  0
   -3.0506   -7.5507    3.0832 H   0  0  0  0  0  0  0  0  0  0  0  0
   -3.1531  -10.0397    3.2425 H   0  0  0  0  0  0  0  0  0  0  0  0
   -1.5659  -11.4369    1.9385 H   0  0  0  0  0  0  0  0  0  0  0  0
    6.1052   -6.4599   -3.3514 H   0  0  0  0  0  0  0  0  0  0  0  0
    6.6781   -6.6008   -5.5426 H   0  0  0  0  0  0  0  0  0  0  0  0
  1  2  1  0
  1 30  1  0
  1 31  1  0
  1 32  1  0
  2  3  1  0
  3  4  2  0
  3 28  1  0
  4  5  1  0
  4 33  1  0
  5  6  2  0
  5 34  1  0
  6  7  1  0
  6 27  1  0
  7  8  1  0
  7 35  1  0
  7 36  1  0
  8  9  1  0
  8 10  1  0
  9 37  1  0
  9 38  1  0
  9 39  1  0
 10 11  2  0
 10 12  1  0
 12 13  1  0
 12 40  1  0
 13 14  1  0
 13 41  1  0
 13 42  1  0
 14 15  1  0
 14 19  1  0
 14 43  1  6
 15 16  1  0
 15 44  1  0
 15 45  1  0
 16 17  1  0
 16 46  1  0
 16 47  1  0
 17 18  1  0
 17 48  1  0
 17 49  1  0
 18 19  1  0
 18 50  1  0
 18 51  1  0
 19 20  1  0
 20 21  1  0
 20 52  1  0
 20 53  1  0
 21 22  2  0
 21 26  1  0
 22 23  1  0
 22 54  1  0
 23 24  2  0
 23 55  1  0
 24 25  1  0
 24 56  1  0
 25 26  2  0
 25 57  1  0
 26 58  1  0
 27 28  2  0
 27 59  1  0
 28 29  1  0
 29 60  1  0
M  END

