
     RDKit          3D

 50 53  0  0  0  0  0  0  0  0999 V2000
    0.3353   -0.2513    1.4704 C   0  0  0  0  0  0  0  0  0  0  0  0
    1.4964   -0.1041    0.4824 C   0  0  0  0  0  0  0  0  0  0  0  0
    2.7186   -0.8194    0.8821 N   0  0  0  0  0  0  0  0  0  0  0  0
    2.6584   -2.2601    0.7694 C   0  0  0  0  0  0  0  0  0  0  0  0
    2.4196   -2.7509   -0.5933 C   0  0  0  0  0  0  0  0  0  0  0  0
    2.9618   -2.0554   -1.7082 C   0  0  0  0  0  0  0  0  0  0  0  0
    2.7588   -2.4879   -3.0160 C   0  0  0  0  0  0  0  0  0  0  0  0
    1.9892   -3.6285   -3.2852 C   0  0  0  0  0  0  0  0  0  0  0  0
    1.4145   -4.3122   -2.2088 C   0  0  0  0  0  0  0  0  0  0  0  0
    1.6169   -3.8826   -0.8958 C   0  0  0  0  0  0  0  0  0  0  0  0
    2.9415   -3.0495    1.8813 C   0  0  0  0  0  0  0  0  0  0  0  0
    2.9264   -4.4973    1.8985 C   0  0  0  0  0  0  0  0  0  0  0  0
    3.0978   -5.1988    3.0753 C   0  0  0  0  0  0  0  0  0  0  0  0
    3.0105   -6.6438    3.0080 N   0  0  0  0  0  0  0  0  0  0  0  0
    2.1383   -7.3762    3.6915 C   0  0  0  0  0  0  0  0  0  0  0  0
    1.4468   -6.8300    4.6995 N   0  0  0  0  0  0  0  0  0  0  0  0
    1.9427   -8.6800    3.3782 N   0  0  0  0  0  0  0  0  0  0  0  0
    2.4279   -9.0962    2.5938 H   0  0  0  0  0  0  0  0  0  0  0  0
    1.5368   -9.3111    4.0568 H   0  0  0  0  0  0  0  0  0  0  0  0
    3.3193   -4.5842    4.3250 C   0  0  0  0  0  0  0  0  0  0  0  0
    3.5122   -3.1776    4.2877 C   0  0  0  0  0  0  0  0  0  0  0  0
    3.3966   -2.4254    3.1301 C   0  0  0  0  0  0  0  0  0  0  0  0
    3.8237   -1.0145    3.0564 C   0  0  0  0  0  0  0  0  0  0  0  0
    4.5974   -0.3879    4.0496 C   0  0  0  0  0  0  0  0  0  0  0  0
    4.9835    0.9476    3.9725 C   0  0  0  0  0  0  0  0  0  0  0  0
    4.6248    1.7152    2.8485 C   0  0  0  0  0  0  0  0  0  0  0  0
    4.9653    3.0652    2.7643 N   0  0  0  0  0  0  0  0  0  0  0  0
    3.8889    1.0960    1.8261 C   0  0  0  0  0  0  0  0  0  0  0  0
    3.4791   -0.2459    1.9131 C   0  0  0  0  0  0  0  0  0  0  0  0
   -0.5611    0.2734    1.0987 H   0  0  0  0  0  0  0  0  0  0  0  0
    0.5936    0.1703    2.4553 H   0  0  0  0  0  0  0  0  0  0  0  0
    0.0771   -1.3128    1.6106 H   0  0  0  0  0  0  0  0  0  0  0  0
    1.7352    0.9613    0.3459 H   0  0  0  0  0  0  0  0  0  0  0  0
    1.1920   -0.4743   -0.5080 H   0  0  0  0  0  0  0  0  0  0  0  0
    3.5661   -1.1662   -1.5156 H   0  0  0  0  0  0  0  0  0  0  0  0
    3.2125   -1.9302   -3.8414 H   0  0  0  0  0  0  0  0  0  0  0  0
    1.8283   -3.9652   -4.3125 H   0  0  0  0  0  0  0  0  0  0  0  0
    0.7789   -5.1842   -2.3944 H   0  0  0  0  0  0  0  0  0  0  0  0
    1.1024   -4.4040   -0.0870 H   0  0  0  0  0  0  0  0  0  0  0  0
    2.7414   -5.0476    0.9773 H   0  0  0  0  0  0  0  0  0  0  0  0
    3.5285   -7.0978    2.2617 H   0  0  0  0  0  0  0  0  0  0  0  0
    1.6249   -5.8252    4.8688 H   0  0  0  0  0  0  0  0  0  0  0  0
    0.5879   -7.2632    5.0186 H   0  0  0  0  0  0  0  0  0  0  0  0
    3.6136   -5.1627    5.2034 H   0  0  0  0  0  0  0  0  0  0  0  0
    3.8162   -2.6830    5.2132 H   0  0  0  0  0  0  0  0  0  0  0  0
    4.9133   -0.9655    4.9211 H   0  0  0  0  0  0  0  0  0  0  0  0
    5.5727    1.3976    4.7766 H   0  0  0  0  0  0  0  0  0  0  0  0
    5.7707    3.3432    3.3144 H   0  0  0  0  0  0  0  0  0  0  0  0
    4.9977    3.4477    1.8253 H   0  0  0  0  0  0  0  0  0  0  0  0
    3.6371    1.6713    0.9323 H   0  0  0  0  0  0  0  0  0  0  0  0
  1  2  1  0
  1 30  1  0
  1 31  1  0
  1 32  1  0
  2  3  1  0
  2 33  1  0
  2 34  1  0
  3  4  1  0
  3 29  1  0
  4  5  1  0
  4 11  2  0
  5  6  2  0
  5 10  1  0
  6  7  1  0
  6 35  1  0
  7  8  2  0
  7 36  1  0
  8  9  1  0
  8 37  1  0
  9 10  2  0
  9 38  1  0
 10 39  1  0
 11 12  1  0
 11 22  1  0
 12 13  2  0
 12 40  1  0
 13 14  1  0
 13 20  1  0
 14 15  1  0
 14 41  1  0
 15 16  1  0
 15 17  1  0
 16 42  1  0
 16 43  1  0
 17 18  1  0
 17 19  1  0
 20 21  2  0
 20 44  1  0
 21 22  1  0
 21 45  1  0
 22 23  2  0
 23 24  1  0
 23 29  1  0
 24 25  2  0
 24 46  1  0
 25 26  1  0
 25 47  1  0
 26 27  2  0
 26 28  1  0
 27 48  1  0
 27 49  1  0
 28 29  2  0
 28 50  1  0
M  CHG  2  15  -1  27   1
M  END

