
     RDKit          3D

 61 64  0  0  0  0  0  0  0  0999 V2000
    0.5700    0.2579   -0.8969 C   0  0  0  0  0  0  0  0  0  0  0  0
    2.0683    0.4749   -0.8043 C   0  0  0  0  0  0  0  0  0  0  0  0
    2.7069   -0.7628   -1.0765 O   0  0  0  0  0  0  0  0  0  0  0  0
    4.0597   -0.8577   -1.0620 C   0  0  0  0  0  0  0  0  0  0  0  0
    4.9201    0.2423   -0.7808 C   0  0  0  0  0  0  0  0  0  0  0  0
    6.2904    0.0684   -0.7851 C   0  0  0  0  0  0  0  0  0  0  0  0
    6.8686   -1.1947   -1.0652 C   0  0  0  0  0  0  0  0  0  0  0  0
    8.2650   -1.4397   -1.1034 C   0  0  0  0  0  0  0  0  0  0  0  0
    8.7632   -2.6963   -1.3827 C   0  0  0  0  0  0  0  0  0  0  0  0
   10.2651   -2.9228   -1.5277 C   0  0  0  0  0  0  0  0  0  0  0  0
   10.7667   -3.0790   -2.8880 N   0  0  0  0  0  0  0  0  0  0  0  0
   10.5672   -1.9543   -3.7843 C   0  0  0  0  0  0  0  0  0  0  0  0
   11.2580   -2.2014   -5.1348 C   0  0  0  0  0  0  0  0  0  0  0  0
   11.1426   -1.0324   -6.0865 C   0  0  0  0  0  0  0  0  0  0  0  0
   12.1280   -0.0361   -6.1340 C   0  0  0  0  0  0  0  0  0  0  0  0
   12.0038    1.0657   -6.9856 C   0  0  0  0  0  0  0  0  0  0  0  0
   10.8888    1.2150   -7.8223 C   0  0  0  0  0  0  0  0  0  0  0  0
   10.7521    2.3945   -8.7551 C   0  0  0  0  0  0  0  0  0  0  0  0
    9.9007    0.2174   -7.7742 C   0  0  0  0  0  0  0  0  0  0  0  0
   10.0253   -0.8825   -6.9249 C   0  0  0  0  0  0  0  0  0  0  0  0
    7.7974   -3.7418   -1.6221 C   0  0  0  0  0  0  0  0  0  0  0  0
    8.2344   -5.1568   -1.9062 C   0  0  0  0  0  0  0  0  0  0  0  0
    8.1509   -5.6199   -3.1953 C   0  0  0  0  0  0  0  0  0  0  0  0
    8.6258   -6.8973   -3.6866 C   0  0  0  0  0  0  0  0  0  0  0  0
    8.6620   -8.0497   -2.9783 C   0  0  0  0  0  0  0  0  0  0  0  0
    8.0309   -8.1607   -1.6130 C   0  0  0  0  0  0  0  0  0  0  0  0
    8.7827   -7.2610   -0.6667 C   0  0  0  0  0  0  0  0  0  0  0  0
    8.7970   -5.9139   -0.7969 C   0  0  0  0  0  0  0  0  0  0  0  0
    6.4962   -3.5434   -1.6118 N   0  0  0  0  0  0  0  0  0  0  0  0
    6.0020   -2.3007   -1.3452 C   0  0  0  0  0  0  0  0  0  0  0  0
    4.6014   -2.1061   -1.3385 C   0  0  0  0  0  0  0  0  0  0  0  0
    0.0352    1.1981   -0.6911 H   0  0  0  0  0  0  0  0  0  0  0  0
    0.2416   -0.4980   -0.1673 H   0  0  0  0  0  0  0  0  0  0  0  0
    0.2897   -0.0909   -1.9025 H   0  0  0  0  0  0  0  0  0  0  0  0
    2.3485    0.8345    0.2040 H   0  0  0  0  0  0  0  0  0  0  0  0
    2.3968    1.2411   -1.5320 H   0  0  0  0  0  0  0  0  0  0  0  0
    4.5071    1.2268   -0.5618 H   0  0  0  0  0  0  0  0  0  0  0  0
    6.9453    0.9179   -0.5716 H   0  0  0  0  0  0  0  0  0  0  0  0
    8.9543   -0.6090   -0.9175 H   0  0  0  0  0  0  0  0  0  0  0  0
   10.5756   -3.8134   -0.9613 H   0  0  0  0  0  0  0  0  0  0  0  0
   10.7871   -2.0659   -1.0674 H   0  0  0  0  0  0  0  0  0  0  0  0
   10.4056   -3.9392   -3.2990 H   0  0  0  0  0  0  0  0  0  0  0  0
   11.0095   -1.0562   -3.3156 H   0  0  0  0  0  0  0  0  0  0  0  0
    9.4992   -1.7028   -3.9667 H   0  0  0  0  0  0  0  0  0  0  0  0
   10.8150   -3.1007   -5.5988 H   0  0  0  0  0  0  0  0  0  0  0  0
   12.3163   -2.4374   -4.9396 H   0  0  0  0  0  0  0  0  0  0  0  0
   13.0130   -0.1254   -5.4966 H   0  0  0  0  0  0  0  0  0  0  0  0
   12.7928    1.8235   -7.0016 H   0  0  0  0  0  0  0  0  0  0  0  0
   11.5569    3.1284   -8.6002 H   0  0  0  0  0  0  0  0  0  0  0  0
    9.7898    2.9132   -8.6104 H   0  0  0  0  0  0  0  0  0  0  0  0
   10.7889    2.0774   -9.8115 H   0  0  0  0  0  0  0  0  0  0  0  0
    9.0188    0.3024   -8.4167 H   0  0  0  0  0  0  0  0  0  0  0  0
    9.2401   -1.6448   -6.9152 H   0  0  0  0  0  0  0  0  0  0  0  0
    7.7965   -4.9086   -3.9498 H   0  0  0  0  0  0  0  0  0  0  0  0
    8.9933   -6.9111   -4.7195 H   0  0  0  0  0  0  0  0  0  0  0  0
    9.1439   -8.9325   -3.4117 H   0  0  0  0  0  0  0  0  0  0  0  0
    8.0401   -9.2004   -1.2569 H   0  0  0  0  0  0  0  0  0  0  0  0
    6.9747   -7.8350   -1.6684 H   0  0  0  0  0  0  0  0  0  0  0  0
    9.3209   -7.7151    0.1722 H   0  0  0  0  0  0  0  0  0  0  0  0
    9.2559   -5.3302    0.0082 H   0  0  0  0  0  0  0  0  0  0  0  0
    3.9477   -2.9523   -1.5515 H   0  0  0  0  0  0  0  0  0  0  0  0
  1  2  1  0
  1 32  1  0
  1 33  1  0
  1 34  1  0
  2  3  1  0
  2 35  1  0
  2 36  1  0
  3  4  1  0
  4  5  2  0
  4 31  1  0
  5  6  1  0
  5 37  1  0
  6  7  2  0
  6 38  1  0
  7  8  1  0
  7 30  1  0
  8  9  2  0
  8 39  1  0
  9 10  1  0
  9 21  1  0
 10 11  1  0
 10 40  1  0
 10 41  1  0
 11 12  1  0
 11 42  1  0
 12 13  1  0
 12 43  1  0
 12 44  1  0
 13 14  1  0
 13 45  1  0
 13 46  1  0
 14 15  2  0
 14 20  1  0
 15 16  1  0
 15 47  1  0
 16 17  2  0
 16 48  1  0
 17 18  1  0
 17 19  1  0
 18 49  1  0
 18 50  1  0
 18 51  1  0
 19 20  2  0
 19 52  1  0
 20 53  1  0
 21 22  1  0
 21 29  2  0
 22 23  2  0
 22 28  1  0
 23 24  1  0
 23 54  1  0
 24 25  2  0
 24 55  1  0
 25 26  1  0
 25 56  1  0
 26 27  1  0
 26 57  1  0
 26 58  1  0
 27 28  2  0
 27 59  1  0
 28 60  1  0
 29 30  1  0
 30 31  2  0
 31 61  1  0
M  END

