
     RDKit          3D

 40 42  0  0  0  0  0  0  0  0999 V2000
    2.8653   -4.1590    4.0679 C   0  0  0  0  0  0  0  0  0  0  0  0
    3.8289   -3.5486    3.2106 O   0  0  0  0  0  0  0  0  0  0  0  0
    4.2247   -2.3061    3.5507 C   0  0  0  0  0  0  0  0  0  0  0  0
    3.8046   -1.7243    4.5238 O   0  0  0  0  0  0  0  0  0  0  0  0
    5.2293   -1.7428    2.5971 C   0  0  0  0  0  0  0  0  0  0  0  0
    5.7163   -0.4305    2.8663 C   0  0  0  0  0  0  0  0  0  0  0  0
    6.6452    0.1837    2.0448 C   0  0  0  0  0  0  0  0  0  0  0  0
    7.0992   -0.5383    0.9235 C   0  0  0  0  0  0  0  0  0  0  0  0
    7.9993   -0.2062   -0.0631 N   0  0  0  0  0  0  0  0  0  0  0  0
    8.0836   -1.1940   -0.8919 N   0  0  0  0  0  0  0  0  0  0  0  0
    7.2756   -2.1814   -0.4725 N   0  0  0  0  0  0  0  0  0  0  0  0
    7.1190   -3.3089   -1.2039 O   0  0  0  0  0  0  0  0  0  0  0  0
    8.2849   -4.1847   -1.1094 C   0  0  0  0  0  0  0  0  0  0  0  0
    8.0573   -5.3715   -2.0017 C   0  0  0  0  0  0  0  0  0  0  0  0
    8.7567   -5.4487   -3.2148 C   0  0  0  0  0  0  0  0  0  0  0  0
    8.6015   -6.5229   -4.1001 C   0  0  0  0  0  0  0  0  0  0  0  0
    9.3519   -6.5829   -5.4083 C   0  0  0  0  0  0  0  0  0  0  0  0
    7.7071   -7.5379   -3.7309 C   0  0  0  0  0  0  0  0  0  0  0  0
    7.0001   -7.4713   -2.5296 C   0  0  0  0  0  0  0  0  0  0  0  0
    7.1540   -6.3961   -1.6429 C   0  0  0  0  0  0  0  0  0  0  0  0
    6.3686   -6.3472   -0.3548 C   0  0  0  0  0  0  0  0  0  0  0  0
    6.6086   -1.8400    0.6715 C   0  0  0  0  0  0  0  0  0  0  0  0
    5.6663   -2.4730    1.4916 C   0  0  0  0  0  0  0  0  0  0  0  0
    2.6624   -5.1501    3.6437 H   0  0  0  0  0  0  0  0  0  0  0  0
    1.9410   -3.5628    4.1047 H   0  0  0  0  0  0  0  0  0  0  0  0
    3.2569   -4.2542    5.0920 H   0  0  0  0  0  0  0  0  0  0  0  0
    5.3253    0.0770    3.7495 H   0  0  0  0  0  0  0  0  0  0  0  0
    7.0196    1.1891    2.2447 H   0  0  0  0  0  0  0  0  0  0  0  0
    8.4104   -4.4728   -0.0518 H   0  0  0  0  0  0  0  0  0  0  0  0
    9.1663   -3.6111   -1.4299 H   0  0  0  0  0  0  0  0  0  0  0  0
    9.4469   -4.6404   -3.4749 H   0  0  0  0  0  0  0  0  0  0  0  0
   10.1244   -5.8023   -5.4687 H   0  0  0  0  0  0  0  0  0  0  0  0
    8.6707   -6.4432   -6.2652 H   0  0  0  0  0  0  0  0  0  0  0  0
    9.8445   -7.5593   -5.5454 H   0  0  0  0  0  0  0  0  0  0  0  0
    7.5597   -8.3961   -4.3934 H   0  0  0  0  0  0  0  0  0  0  0  0
    6.3083   -8.2778   -2.2703 H   0  0  0  0  0  0  0  0  0  0  0  0
    5.7349   -7.2385   -0.2425 H   0  0  0  0  0  0  0  0  0  0  0  0
    5.7181   -5.4592   -0.3204 H   0  0  0  0  0  0  0  0  0  0  0  0
    7.0298   -6.2965    0.5272 H   0  0  0  0  0  0  0  0  0  0  0  0
    5.2882   -3.4734    1.2880 H   0  0  0  0  0  0  0  0  0  0  0  0
  1  2  1  0
  1 24  1  0
  1 25  1  0
  1 26  1  0
  2  3  1  0
  3  4  2  0
  3  5  1  0
  5  6  2  0
  5 23  1  0
  6  7  1  0
  6 27  1  0
  7  8  2  0
  7 28  1  0
  8  9  1  0
  8 22  1  0
  9 10  2  0
 10 11  1  0
 11 12  1  0
 11 22  1  0
 12 13  1  0
 13 14  1  0
 13 29  1  0
 13 30  1  0
 14 15  2  0
 14 20  1  0
 15 16  1  0
 15 31  1  0
 16 17  1  0
 16 18  2  0
 17 32  1  0
 17 33  1  0
 17 34  1  0
 18 19  1  0
 18 35  1  0
 19 20  2  0
 19 36  1  0
 20 21  1  0
 21 37  1  0
 21 38  1  0
 21 39  1  0
 22 23  2  0
 23 40  1  0
M  END

