
     RDKit          3D

 29 29  0  0  0  0  0  0  0  0999 V2000
    3.3941    1.7813   -0.9038 N   0  0  0  0  0  0  0  0  0  0  0  0
    4.1901    0.9982    0.0329 C   0  0  0  0  0  0  0  0  0  0  0  0
    5.1235    0.0665   -0.7161 C   0  0  0  0  0  0  0  0  0  0  0  0
    4.3247   -0.8579   -1.4442 O   0  0  0  0  0  0  0  0  0  0  0  0
    5.0115   -1.6966   -2.3121 C   0  0  0  0  0  0  0  0  0  0  0  0
    5.8083   -2.8127   -1.6321 C   0  0  0  0  0  0  0  0  0  0  0  0
    5.7885   -2.9911   -0.4400 O   0  0  0  0  0  0  0  0  0  0  0  0
    6.6510   -3.6682   -2.5899 C   0  0  0  0  0  0  0  0  0  0  0  0
    7.0396   -5.0017   -2.0169 C   0  0  0  0  0  0  0  0  0  0  0  0
    6.1609   -6.1010   -2.0610 C   0  0  0  0  0  0  0  0  0  0  0  0
    4.5836   -5.9122   -2.8084 Cl  0  0  0  0  0  0  0  0  0  0  0  0
    6.4848   -7.3482   -1.5246 C   0  0  0  0  0  0  0  0  0  0  0  0
    7.7247   -7.5218   -0.9092 C   0  0  0  0  0  0  0  0  0  0  0  0
    8.6243   -6.4593   -0.8311 C   0  0  0  0  0  0  0  0  0  0  0  0
    8.2742   -5.2218   -1.3775 C   0  0  0  0  0  0  0  0  0  0  0  0
    9.4398   -3.9178   -1.2482 Cl  0  0  0  0  0  0  0  0  0  0  0  0
    2.7215    2.3609   -0.4024 H   0  0  0  0  0  0  0  0  0  0  0  0
    2.8478    1.1398   -1.4802 H   0  0  0  0  0  0  0  0  0  0  0  0
    3.5980    0.3816    0.7434 H   0  0  0  0  0  0  0  0  0  0  0  0
    4.8096    1.6785    0.6431 H   0  0  0  0  0  0  0  0  0  0  0  0
    5.7838   -0.4651   -0.0093 H   0  0  0  0  0  0  0  0  0  0  0  0
    5.7472    0.6541   -1.4197 H   0  0  0  0  0  0  0  0  0  0  0  0
    5.6954   -1.1395   -2.9908 H   0  0  0  0  0  0  0  0  0  0  0  0
    4.2658   -2.1922   -2.9606 H   0  0  0  0  0  0  0  0  0  0  0  0
    7.5543   -3.0788   -2.8158 H   0  0  0  0  0  0  0  0  0  0  0  0
    6.1063   -3.7948   -3.5379 H   0  0  0  0  0  0  0  0  0  0  0  0
    5.7656   -8.1654   -1.5897 H   0  0  0  0  0  0  0  0  0  0  0  0
    7.9903   -8.4923   -0.4838 H   0  0  0  0  0  0  0  0  0  0  0  0
    9.5954   -6.5767   -0.3489 H   0  0  0  0  0  0  0  0  0  0  0  0
  1  2  1  0
  1 17  1  0
  1 18  1  0
  2  3  1  0
  2 19  1  0
  2 20  1  0
  3  4  1  0
  3 21  1  0
  3 22  1  0
  4  5  1  0
  5  6  1  0
  5 23  1  0
  5 24  1  0
  6  7  2  0
  6  8  1  0
  8  9  1  0
  8 25  1  0
  8 26  1  0
  9 10  2  0
  9 15  1  0
 10 11  1  0
 10 12  1  0
 12 13  2  0
 12 27  1  0
 13 14  1  0
 13 28  1  0
 14 15  2  0
 14 29  1  0
 15 16  1  0
M  END

