
     RDKit          3D

 39 42  0  0  0  0  0  0  0  0999 V2000
    0.8737   -0.0911    0.4813 C   0  0  0  0  0  0  0  0  0  0  0  0
    2.4005   -0.2746    0.2837 C   0  0  1  0  0  0  0  0  0  0  0  0
    3.1335    0.9927    0.2880 N   0  0  0  0  0  0  0  0  0  0  0  0
    2.8990   -1.0633    1.4771 C   0  0  0  0  0  0  0  0  0  0  0  0
    3.3640   -0.5984    2.5977 N   0  0  0  0  0  0  0  0  0  0  0  0
    3.5716   -1.7408    3.3396 C   0  0  0  0  0  0  0  0  0  0  0  0
    4.1035   -1.7413    4.7449 C   0  0  1  0  0  0  0  0  0  0  0  0
    5.3792   -0.8639    4.9160 C   0  0  0  0  0  0  0  0  0  0  0  0
    4.8837    0.5101    5.4238 C   0  0  0  0  0  0  0  0  0  0  0  0
    3.5726    0.1796    6.1019 C   0  0  0  0  0  0  0  0  0  0  0  0
    2.8126    0.9511    6.9843 C   0  0  0  0  0  0  0  0  0  0  0  0
    1.6037    0.4403    7.4728 C   0  0  0  0  0  0  0  0  0  0  0  0
    1.1555   -0.8270    7.0794 C   0  0  0  0  0  0  0  0  0  0  0  0
    1.9134   -1.6005    6.1921 C   0  0  0  0  0  0  0  0  0  0  0  0
    3.1221   -1.0914    5.7150 C   0  0  0  0  0  0  0  0  0  0  0  0
    3.2499   -2.8450    2.7141 N   0  0  0  0  0  0  0  0  0  0  0  0
    2.7960   -2.3963    1.4721 O   0  0  0  0  0  0  0  0  0  0  0  0
    2.7734   -1.0094   -1.0094 C   0  0  1  0  0  0  0  0  0  0  0  0
    1.9438   -2.0893   -1.6458 C   0  0  0  0  0  0  0  0  0  0  0  0
    2.0782   -0.7490   -2.3242 C   0  0  0  0  0  0  0  0  0  0  0  0
    0.6926    0.4541    1.4198 H   0  0  0  0  0  0  0  0  0  0  0  0
    0.3350   -1.0494    0.5367 H   0  0  0  0  0  0  0  0  0  0  0  0
    0.4493    0.5026   -0.3430 H   0  0  0  0  0  0  0  0  0  0  0  0
    3.0644    1.4399    1.2024 H   0  0  0  0  0  0  0  0  0  0  0  0
    2.7279    1.6223   -0.4034 H   0  0  0  0  0  0  0  0  0  0  0  0
    4.2923   -2.7935    5.0042 H   0  0  0  0  0  0  0  0  0  0  0  0
    5.9702   -0.7938    3.9915 H   0  0  0  0  0  0  0  0  0  0  0  0
    6.0173   -1.3327    5.6819 H   0  0  0  0  0  0  0  0  0  0  0  0
    4.7052    1.1971    4.5787 H   0  0  0  0  0  0  0  0  0  0  0  0
    5.6066    1.0002    6.0955 H   0  0  0  0  0  0  0  0  0  0  0  0
    3.1567    1.9416    7.2954 H   0  0  0  0  0  0  0  0  0  0  0  0
    1.0061    1.0340    8.1697 H   0  0  0  0  0  0  0  0  0  0  0  0
    0.2114   -1.2154    7.4704 H   0  0  0  0  0  0  0  0  0  0  0  0
    1.5646   -2.5893    5.8809 H   0  0  0  0  0  0  0  0  0  0  0  0
    3.8580   -1.1360   -1.0788 H   0  0  0  0  0  0  0  0  0  0  0  0
    0.9766   -2.3386   -1.2026 H   0  0  0  0  0  0  0  0  0  0  0  0
    2.4699   -2.9502   -2.0668 H   0  0  0  0  0  0  0  0  0  0  0  0
    1.1982   -0.1001   -2.3411 H   0  0  0  0  0  0  0  0  0  0  0  0
    2.7009   -0.6697   -3.2196 H   0  0  0  0  0  0  0  0  0  0  0  0
  1  2  1  0
  1 21  1  0
  1 22  1  0
  1 23  1  0
  2  3  1  6
  2  4  1  0
  2 18  1  0
  3 24  1  0
  3 25  1  0
  4  5  2  0
  4 17  1  0
  5  6  1  0
  6  7  1  0
  6 16  2  0
  7  8  1  0
  7 15  1  0
  7 26  1  1
  8  9  1  0
  8 27  1  0
  8 28  1  0
  9 10  1  0
  9 29  1  0
  9 30  1  0
 10 11  1  0
 10 15  2  0
 11 12  2  0
 11 31  1  0
 12 13  1  0
 12 32  1  0
 13 14  2  0
 13 33  1  0
 14 15  1  0
 14 34  1  0
 16 17  1  0
 18 19  1  0
 18 20  1  0
 18 35  1  6
 19 20  1  0
 19 36  1  0
 19 37  1  0
 20 38  1  0
 20 39  1  0
M  END

