
     RDKit          3D

 29 30  0  0  0  0  0  0  0  0999 V2000
    1.1961    0.4382    0.0951 C   0  0  0  0  0  0  0  0  0  0  0  0
    2.6870    0.2554   -0.0442 C   0  0  0  0  0  0  0  0  0  0  0  0
    3.5408    1.3634   -0.0509 C   0  0  0  0  0  0  0  0  0  0  0  0
    4.9381    1.2369   -0.1615 C   0  0  0  0  0  0  0  0  0  0  0  0
    5.7667    2.3516   -0.0910 N   0  0  0  0  0  0  0  0  0  0  0  0
    5.4701   -0.0595   -0.2920 C   0  0  0  0  0  0  0  0  0  0  0  0
    4.6314   -1.1707   -0.3146 C   0  0  0  0  0  0  0  0  0  0  0  0
    3.2398   -1.0401   -0.1785 C   0  0  0  0  0  0  0  0  0  0  0  0
    2.3786   -2.1598   -0.2200 N   0  0  0  0  0  0  0  0  0  0  0  0
    2.5746   -3.4152    0.3400 C   0  0  0  0  0  0  0  0  0  0  0  0
    3.4974   -3.6554    1.3809 C   0  0  0  0  0  0  0  0  0  0  0  0
    3.6273   -4.9303    1.9304 C   0  0  0  0  0  0  0  0  0  0  0  0
    2.8464   -5.9875    1.4722 C   0  0  0  0  0  0  0  0  0  0  0  0
    2.9814   -7.2058    2.0118 F   0  0  0  0  0  0  0  0  0  0  0  0
    1.9211   -5.7653    0.4473 C   0  0  0  0  0  0  0  0  0  0  0  0
    0.9413   -7.0868   -0.1276 Cl  0  0  0  0  0  0  0  0  0  0  0  0
    1.7934   -4.4972   -0.1186 C   0  0  0  0  0  0  0  0  0  0  0  0
    0.9434    1.4770    0.3516 H   0  0  0  0  0  0  0  0  0  0  0  0
    0.7844   -0.2214    0.8763 H   0  0  0  0  0  0  0  0  0  0  0  0
    0.6590    0.1969   -0.8410 H   0  0  0  0  0  0  0  0  0  0  0  0
    3.1062    2.3625    0.0538 H   0  0  0  0  0  0  0  0  0  0  0  0
    5.3404    3.2409   -0.3248 H   0  0  0  0  0  0  0  0  0  0  0  0
    6.6913    2.2457   -0.4930 H   0  0  0  0  0  0  0  0  0  0  0  0
    6.5509   -0.1956   -0.3895 H   0  0  0  0  0  0  0  0  0  0  0  0
    5.0650   -2.1636   -0.4499 H   0  0  0  0  0  0  0  0  0  0  0  0
    1.5517   -2.0673   -0.7967 H   0  0  0  0  0  0  0  0  0  0  0  0
    4.1029   -2.8383    1.7725 H   0  0  0  0  0  0  0  0  0  0  0  0
    4.3367   -5.1211    2.7389 H   0  0  0  0  0  0  0  0  0  0  0  0
    1.0739   -4.3550   -0.9277 H   0  0  0  0  0  0  0  0  0  0  0  0
  1  2  1  0
  1 18  1  0
  1 19  1  0
  1 20  1  0
  2  3  2  0
  2  8  1  0
  3  4  1  0
  3 21  1  0
  4  5  1  0
  4  6  2  0
  5 22  1  0
  5 23  1  0
  6  7  1  0
  6 24  1  0
  7  8  2  0
  7 25  1  0
  8  9  1  0
  9 10  1  0
  9 26  1  0
 10 11  2  0
 10 17  1  0
 11 12  1  0
 11 27  1  0
 12 13  2  0
 12 28  1  0
 13 14  1  0
 13 15  1  0
 15 16  1  0
 15 17  2  0
 17 29  1  0
M  END

