
     RDKit          3D

 50 54  0  0  0  0  0  0  0  0999 V2000
    2.0375    0.2612    1.2803 C   0  0  0  0  0  0  0  0  0  0  0  0
    2.6481   -0.0196    0.0423 O   0  0  0  0  0  0  0  0  0  0  0  0
    2.9508    1.0021   -0.7977 C   0  0  0  0  0  0  0  0  0  0  0  0
    2.6975    2.3582   -0.5328 C   0  0  0  0  0  0  0  0  0  0  0  0
    3.0495    3.3296   -1.4704 C   0  0  0  0  0  0  0  0  0  0  0  0
    3.6582    2.9882   -2.6895 C   0  0  0  0  0  0  0  0  0  0  0  0
    4.0047    4.0498   -3.6392 C   0  0  0  0  0  0  0  0  0  0  0  0
    3.7959    5.3412   -3.4592 N   0  0  0  0  0  0  0  0  0  0  0  0
    4.2577    5.9928   -4.5765 C   0  0  0  0  0  0  0  0  0  0  0  0
    4.1641    7.5060   -4.6929 C   0  0  2  0  0  0  0  0  0  0  0  0
    3.5160    8.1019   -3.4161 C   0  0  0  0  0  0  0  0  0  0  0  0
    3.4106    9.6348   -3.5138 C   0  0  1  0  0  0  0  0  0  0  0  0
    4.8169   10.2418   -3.6778 C   0  0  0  0  0  0  0  0  0  0  0  0
    5.4652    9.6842   -4.9586 C   0  0  2  0  0  0  0  0  0  0  0  0
    4.5981   10.0580   -6.1770 C   0  0  0  0  0  0  0  0  0  0  0  0
    3.1872    9.4602   -6.0099 C   0  0  2  0  0  0  0  0  0  0  0  0
    2.5426   10.0180   -4.7273 C   0  0  0  0  0  0  0  0  0  0  0  0
    3.2883    7.9257   -5.9083 C   0  0  0  0  0  0  0  0  0  0  0  0
    5.5709    8.1501   -4.8544 C   0  0  0  0  0  0  0  0  0  0  0  0
    4.7685    5.0624   -5.4781 C   0  0  0  0  0  0  0  0  0  0  0  0
    5.3946    5.1432   -6.8338 C   0  0  0  0  0  0  0  0  0  0  0  0
    4.5966    3.8398   -4.8567 N   0  0  0  0  0  0  0  0  0  0  0  0
    4.8648    2.9469   -5.2500 H   0  0  0  0  0  0  0  0  0  0  0  0
    3.9062    1.6231   -2.9392 C   0  0  0  0  0  0  0  0  0  0  0  0
    3.5608    0.6459   -2.0131 C   0  0  0  0  0  0  0  0  0  0  0  0
    1.8850   -0.7038    1.7821 H   0  0  0  0  0  0  0  0  0  0  0  0
    1.0567    0.7550    1.1546 H   0  0  0  0  0  0  0  0  0  0  0  0
    2.6745    0.8995    1.9193 H   0  0  0  0  0  0  0  0  0  0  0  0
    2.2268    2.6690    0.4001 H   0  0  0  0  0  0  0  0  0  0  0  0
    2.8546    4.3845   -1.2704 H   0  0  0  0  0  0  0  0  0  0  0  0
    4.1098    7.8105   -2.5356 H   0  0  0  0  0  0  0  0  0  0  0  0
    2.5206    7.6545   -3.2693 H   0  0  0  0  0  0  0  0  0  0  0  0
    2.9464   10.0229   -2.5907 H   0  0  0  0  0  0  0  0  0  0  0  0
    5.4403    9.9974   -2.8003 H   0  0  0  0  0  0  0  0  0  0  0  0
    4.7558   11.3430   -3.7301 H   0  0  0  0  0  0  0  0  0  0  0  0
    6.4765   10.1098   -5.0794 H   0  0  0  0  0  0  0  0  0  0  0  0
    5.0633    9.6809   -7.1049 H   0  0  0  0  0  0  0  0  0  0  0  0
    4.5361   11.1556   -6.2767 H   0  0  0  0  0  0  0  0  0  0  0  0
    2.5669    9.7255   -6.8836 H   0  0  0  0  0  0  0  0  0  0  0  0
    1.5233    9.6118   -4.6080 H   0  0  0  0  0  0  0  0  0  0  0  0
    2.4435   11.1155   -4.7969 H   0  0  0  0  0  0  0  0  0  0  0  0
    3.7114    7.5202   -6.8423 H   0  0  0  0  0  0  0  0  0  0  0  0
    2.2839    7.4824   -5.8006 H   0  0  0  0  0  0  0  0  0  0  0  0
    6.1992    7.8676   -3.9926 H   0  0  0  0  0  0  0  0  0  0  0  0
    6.0727    7.7524   -5.7519 H   0  0  0  0  0  0  0  0  0  0  0  0
    5.4487    6.1796   -7.1860 H   0  0  0  0  0  0  0  0  0  0  0  0
    4.8200    4.5717   -7.5843 H   0  0  0  0  0  0  0  0  0  0  0  0
    6.4241    4.7426   -6.8339 H   0  0  0  0  0  0  0  0  0  0  0  0
    4.3772    1.3031   -3.8728 H   0  0  0  0  0  0  0  0  0  0  0  0
    3.7523   -0.4113   -2.2068 H   0  0  0  0  0  0  0  0  0  0  0  0
  1  2  1  0
  1 26  1  0
  1 27  1  0
  1 28  1  0
  2  3  1  0
  3  4  2  0
  3 25  1  0
  4  5  1  0
  4 29  1  0
  5  6  2  0
  5 30  1  0
  6  7  1  0
  6 24  1  0
  7  8  2  0
  7 22  1  0
  8  9  1  0
 10  9  1  1
  9 20  2  0
 10 11  1  0
 10 18  1  0
 10 19  1  0
 11 12  1  0
 11 31  1  0
 11 32  1  0
 12 13  1  0
 12 17  1  0
 12 33  1  1
 13 14  1  0
 13 34  1  0
 13 35  1  0
 14 15  1  0
 14 19  1  0
 14 36  1  6
 15 16  1  0
 15 37  1  0
 15 38  1  0
 16 17  1  0
 16 18  1  0
 16 39  1  6
 17 40  1  0
 17 41  1  0
 18 42  1  0
 18 43  1  0
 19 44  1  0
 19 45  1  0
 20 21  1  0
 20 22  1  0
 21 46  1  0
 21 47  1  0
 21 48  1  0
 22 23  1  0
 24 25  2  0
 24 49  1  0
 25 50  1  0
M  END

