
     RDKit          3D

 42 43  0  0  0  0  0  0  0  0999 V2000
    3.2972    0.0107    1.1727 C   0  0  0  0  0  0  0  0  0  0  0  0
    4.0349   -0.8382    0.1419 C   0  0  0  0  0  0  0  0  0  0  0  0
    3.6811   -0.4994   -1.2455 N   0  0  0  0  0  0  0  0  0  0  0  0
    4.3801    0.3854   -1.9996 C   0  0  0  0  0  0  0  0  0  0  0  0
    3.7627    0.4962   -3.2400 C   0  0  0  0  0  0  0  0  0  0  0  0
    4.3281    1.4684   -4.6010 S   0  0  1  0  0  0  0  0  0  0  0  0
    5.7916    1.3892   -4.6272 O   0  0  0  0  0  0  0  0  0  0  0  0
    3.5023    1.0805   -5.7503 O   0  0  0  0  0  0  0  0  0  0  0  0
    3.9979    3.0727   -4.1782 N   0  0  0  0  0  0  0  0  0  0  0  0
    2.8312    3.7651   -4.7586 C   0  0  1  0  0  0  0  0  0  0  0  0
    1.5354    3.3983   -4.0173 C   0  0  0  0  0  0  0  0  0  0  0  0
    1.5158    3.9158   -2.5743 C   0  0  0  0  0  0  0  0  0  0  0  0
    1.7660    5.4292   -2.5195 C   0  0  0  0  0  0  0  0  0  0  0  0
    3.0597    5.8131   -3.2531 C   0  0  0  0  0  0  0  0  0  0  0  0
    3.0943    5.3001   -4.7041 C   0  0  2  0  0  0  0  0  0  0  0  0
    2.1900    6.0783   -5.5406 N   0  0  0  0  0  0  0  0  0  0  0  0
    2.6511   -0.3728   -3.2433 C   0  0  0  0  0  0  0  0  0  0  0  0
    2.6129   -0.9851   -1.9921 C   0  0  0  0  0  0  0  0  0  0  0  0
    1.6345   -1.9564   -1.4603 C   0  0  0  0  0  0  0  0  0  0  0  0
    1.5276   -2.2511   -0.2936 O   0  0  0  0  0  0  0  0  0  0  0  0
    0.8206   -2.5197   -2.3789 O   0  0  0  0  0  0  0  0  0  0  0  0
    3.6364   -0.2617    2.1844 H   0  0  0  0  0  0  0  0  0  0  0  0
    2.2156   -0.1740    1.1157 H   0  0  0  0  0  0  0  0  0  0  0  0
    3.4916    1.0845    1.0230 H   0  0  0  0  0  0  0  0  0  0  0  0
    3.8125   -1.9004    0.2972 H   0  0  0  0  0  0  0  0  0  0  0  0
    5.1236   -0.7001    0.2251 H   0  0  0  0  0  0  0  0  0  0  0  0
    5.2800    0.8692   -1.6265 H   0  0  0  0  0  0  0  0  0  0  0  0
    4.8797    3.5719   -4.3021 H   0  0  0  0  0  0  0  0  0  0  0  0
    2.7269    3.4783   -5.8200 H   0  0  0  0  0  0  0  0  0  0  0  0
    1.3849    2.3081   -4.0509 H   0  0  0  0  0  0  0  0  0  0  0  0
    0.6929    3.8339   -4.5835 H   0  0  0  0  0  0  0  0  0  0  0  0
    2.2983    3.3960   -1.9957 H   0  0  0  0  0  0  0  0  0  0  0  0
    0.5532    3.6664   -2.0978 H   0  0  0  0  0  0  0  0  0  0  0  0
    1.8160    5.7732   -1.4730 H   0  0  0  0  0  0  0  0  0  0  0  0
    0.9068    5.9629   -2.9665 H   0  0  0  0  0  0  0  0  0  0  0  0
    3.9172    5.3860   -2.7064 H   0  0  0  0  0  0  0  0  0  0  0  0
    3.1935    6.9062   -3.2666 H   0  0  0  0  0  0  0  0  0  0  0  0
    4.1120    5.4679   -5.1052 H   0  0  0  0  0  0  0  0  0  0  0  0
    1.2261    6.0097   -5.2172 H   0  0  0  0  0  0  0  0  0  0  0  0
    2.2011    5.7420   -6.5034 H   0  0  0  0  0  0  0  0  0  0  0  0
    1.9677   -0.5079   -4.0797 H   0  0  0  0  0  0  0  0  0  0  0  0
    1.1014   -2.2908   -3.2761 H   0  0  0  0  0  0  0  0  0  0  0  0
  1  2  1  0
  1 22  1  0
  1 23  1  0
  1 24  1  0
  2  3  1  0
  2 25  1  0
  2 26  1  0
  3  4  1  0
  3 18  1  0
  4  5  2  0
  4 27  1  0
  5  6  1  0
  5 17  1  0
  6  7  2  0
  6  8  2  0
  6  9  1  1
  9 10  1  0
  9 28  1  0
 10 11  1  0
 10 15  1  0
 10 29  1  6
 11 12  1  0
 11 30  1  0
 11 31  1  0
 12 13  1  0
 12 32  1  0
 12 33  1  0
 13 14  1  0
 13 34  1  0
 13 35  1  0
 14 15  1  0
 14 36  1  0
 14 37  1  0
 15 16  1  0
 15 38  1  6
 16 39  1  0
 16 40  1  0
 17 18  2  0
 17 41  1  0
 18 19  1  0
 19 20  2  0
 19 21  1  0
 21 42  1  0
M  END

