
     RDKit          3D

 52 54  0  0  0  0  0  0  0  0999 V2000
   -0.2601    0.5038   -0.7973 C   0  0  0  0  0  0  0  0  0  0  0  0
    0.2444    1.5212    0.0309 O   0  0  0  0  0  0  0  0  0  0  0  0
    1.2402    1.1160    0.9287 C   0  0  1  0  0  0  0  0  0  0  0  0
    1.9351    2.2804    1.6520 C   0  0  0  0  0  0  0  0  0  0  0  0
    1.8652    1.4972    2.9870 C   0  0  2  0  0  0  0  0  0  0  0  0
    3.1422    0.9664    3.4100 N   0  0  0  0  0  0  0  0  0  0  0  0
    3.3209    0.4410    4.6690 C   0  0  0  0  0  0  0  0  0  0  0  0
    2.4282    0.4001    5.5045 O   0  0  0  0  0  0  0  0  0  0  0  0
    4.6012   -0.0520    4.8980 N   0  0  0  0  0  0  0  0  0  0  0  0
    4.9954   -0.3864    6.2659 C   0  0  1  0  0  0  0  0  0  0  0  0
    4.3224   -1.6581    6.7971 C   0  0  0  0  0  0  0  0  0  0  0  0
    5.1391   -2.8808    6.4108 C   0  0  0  0  0  0  0  0  0  0  0  0
    6.5187   -2.7914    7.0453 C   0  0  0  0  0  0  0  0  0  0  0  0
    7.1909   -1.5135    6.7600 N   0  0  0  0  0  0  0  0  0  0  0  0
    8.5849   -1.4830    6.9904 C   0  0  0  0  0  0  0  0  0  0  0  0
    9.5579   -0.4999    6.6467 C   0  0  0  0  0  0  0  0  0  0  0  0
   10.7673   -0.8660    7.0604 N   0  0  0  0  0  0  0  0  0  0  0  0
   10.6123   -2.0534    7.6529 N   0  0  0  0  0  0  0  0  0  0  0  0
   11.7417   -2.6984    8.2880 C   0  0  0  0  0  0  0  0  0  0  0  0
    9.3159   -2.4723    7.6464 C   0  0  0  0  0  0  0  0  0  0  0  0
    6.5375   -0.4153    6.2510 C   0  0  0  0  0  0  0  0  0  0  0  0
    7.1268    0.5548    5.7951 O   0  0  0  0  0  0  0  0  0  0  0  0
    0.8355    0.4982    2.3195 C   0  0  1  0  0  0  0  0  0  0  0  0
   -0.5936    0.8579    2.7285 C   0  0  0  0  0  0  0  0  0  0  0  0
    1.1124   -0.9889    2.5116 C   0  0  0  0  0  0  0  0  0  0  0  0
   -0.9882    0.9618   -1.4830 H   0  0  0  0  0  0  0  0  0  0  0  0
   -0.7735   -0.2947   -0.2277 H   0  0  0  0  0  0  0  0  0  0  0  0
    0.5416    0.0301   -1.3996 H   0  0  0  0  0  0  0  0  0  0  0  0
    1.9678    0.4559    0.4115 H   0  0  0  0  0  0  0  0  0  0  0  0
    1.2937    3.1727    1.6567 H   0  0  0  0  0  0  0  0  0  0  0  0
    2.9360    2.5735    1.2977 H   0  0  0  0  0  0  0  0  0  0  0  0
    1.4360    2.0396    3.8409 H   0  0  0  0  0  0  0  0  0  0  0  0
    3.8651    0.8211    2.7155 H   0  0  0  0  0  0  0  0  0  0  0  0
    5.3471    0.4387    4.4081 H   0  0  0  0  0  0  0  0  0  0  0  0
    4.7398    0.4543    6.9386 H   0  0  0  0  0  0  0  0  0  0  0  0
    3.2903   -1.6953    6.4271 H   0  0  0  0  0  0  0  0  0  0  0  0
    4.2572   -1.5915    7.8971 H   0  0  0  0  0  0  0  0  0  0  0  0
    5.2323   -2.9354    5.3123 H   0  0  0  0  0  0  0  0  0  0  0  0
    4.6573   -3.8143    6.7425 H   0  0  0  0  0  0  0  0  0  0  0  0
    7.1677   -3.5947    6.6613 H   0  0  0  0  0  0  0  0  0  0  0  0
    6.4455   -2.9315    8.1404 H   0  0  0  0  0  0  0  0  0  0  0  0
    9.4012    0.4323    6.1160 H   0  0  0  0  0  0  0  0  0  0  0  0
   12.6400   -2.5019    7.6880 H   0  0  0  0  0  0  0  0  0  0  0  0
   11.5688   -3.7826    8.3395 H   0  0  0  0  0  0  0  0  0  0  0  0
   11.9052   -2.3111    9.3076 H   0  0  0  0  0  0  0  0  0  0  0  0
    9.0214   -3.4123    8.1043 H   0  0  0  0  0  0  0  0  0  0  0  0
   -0.8075    1.9278    2.5837 H   0  0  0  0  0  0  0  0  0  0  0  0
   -0.7475    0.6194    3.7934 H   0  0  0  0  0  0  0  0  0  0  0  0
   -1.3359    0.2942    2.1409 H   0  0  0  0  0  0  0  0  0  0  0  0
    2.1399   -1.2555    2.2168 H   0  0  0  0  0  0  0  0  0  0  0  0
    0.4207   -1.5995    1.9073 H   0  0  0  0  0  0  0  0  0  0  0  0
    0.9867   -1.2733    3.5685 H   0  0  0  0  0  0  0  0  0  0  0  0
  1  2  1  0
  1 26  1  0
  1 27  1  0
  1 28  1  0
  2  3  1  0
  3  4  1  0
  3 23  1  0
  3 29  1  6
  4  5  1  0
  4 30  1  0
  4 31  1  0
  5  6  1  0
  5 23  1  0
  5 32  1  1
  6  7  1  0
  6 33  1  0
  7  8  2  0
  7  9  1  0
  9 10  1  0
  9 34  1  0
 10 11  1  0
 10 21  1  0
 10 35  1  1
 11 12  1  0
 11 36  1  0
 11 37  1  0
 12 13  1  0
 12 38  1  0
 12 39  1  0
 13 14  1  0
 13 40  1  0
 13 41  1  0
 14 15  1  0
 14 21  1  0
 15 16  1  0
 15 20  2  0
 16 17  2  0
 16 42  1  0
 17 18  1  0
 18 19  1  0
 18 20  1  0
 19 43  1  0
 19 44  1  0
 19 45  1  0
 20 46  1  0
 21 22  2  0
 23 24  1  1
 23 25  1  0
 24 47  1  0
 24 48  1  0
 24 49  1  0
 25 50  1  0
 25 51  1  0
 25 52  1  0
M  END

