
     RDKit          3D

 47 47  0  0  0  0  0  0  0  0999 V2000
    6.7322   -1.6481    0.6214 C   0  0  0  0  0  0  0  0  0  0  0  0
    5.5517   -0.6926    0.4260 C   0  0  0  0  0  0  0  0  0  0  0  0
    5.8077    0.4749   -0.5535 C   0  0  1  0  0  0  0  0  0  0  0  0
    6.2025   -0.0392   -1.9442 C   0  0  0  0  0  0  0  0  0  0  0  0
    4.5649    1.4092   -0.6194 C   0  0  1  0  0  0  0  0  0  0  0  0
    4.1562    1.9903    0.7425 C   0  0  0  0  0  0  0  0  0  0  0  0
    4.6560    2.4903   -1.6388 N   0  0  0  0  0  0  0  0  0  0  0  0
    3.9268    2.3202   -2.7856 C   0  0  0  0  0  0  0  0  0  0  0  0
    3.3863    1.2652   -3.0886 O   0  0  0  0  0  0  0  0  0  0  0  0
    3.6819    3.5257   -3.7014 C   0  0  2  0  0  0  0  0  0  0  0  0
    4.1171    3.2407   -5.1639 C   0  0  1  0  0  0  0  0  0  0  0  0
    3.5608    4.3040   -6.1190 C   0  0  0  0  0  0  0  0  0  0  0  0
    5.6308    3.0796   -5.3257 C   0  0  0  0  0  0  0  0  0  0  0  0
    4.1760    4.7821   -3.1650 N   0  0  0  0  0  0  0  0  0  0  0  0
    4.8670    4.9621   -2.0080 C   0  0  0  0  0  0  0  0  0  0  0  0
    5.0873    6.0673   -1.5400 O   0  0  0  0  0  0  0  0  0  0  0  0
    5.4408    3.7033   -1.3578 C   0  0  2  0  0  0  0  0  0  0  0  0
    6.9465    3.5739   -1.7199 C   0  0  0  0  0  0  0  0  0  0  0  0
    7.8341    4.6694   -1.1262 C   0  0  0  0  0  0  0  0  0  0  0  0
    6.5081   -2.3868    1.4072 H   0  0  0  0  0  0  0  0  0  0  0  0
    7.6416   -1.1044    0.9296 H   0  0  0  0  0  0  0  0  0  0  0  0
    6.9752   -2.2099   -0.2933 H   0  0  0  0  0  0  0  0  0  0  0  0
    5.2785   -0.2858    1.4123 H   0  0  0  0  0  0  0  0  0  0  0  0
    4.6701   -1.2620    0.0768 H   0  0  0  0  0  0  0  0  0  0  0  0
    6.6539    1.0571   -0.1400 H   0  0  0  0  0  0  0  0  0  0  0  0
    5.3953   -0.6468   -2.3820 H   0  0  0  0  0  0  0  0  0  0  0  0
    7.1152   -0.6513   -1.9002 H   0  0  0  0  0  0  0  0  0  0  0  0
    6.3992    0.7879   -2.6403 H   0  0  0  0  0  0  0  0  0  0  0  0
    3.7347    0.7895   -0.9867 H   0  0  0  0  0  0  0  0  0  0  0  0
    4.9973    2.4551    1.2824 H   0  0  0  0  0  0  0  0  0  0  0  0
    3.7509    1.2006    1.3898 H   0  0  0  0  0  0  0  0  0  0  0  0
    3.3654    2.7458    0.6188 H   0  0  0  0  0  0  0  0  0  0  0  0
    2.5774    3.5769   -3.7215 H   0  0  0  0  0  0  0  0  0  0  0  0
    3.6369    2.2778   -5.4027 H   0  0  0  0  0  0  0  0  0  0  0  0
    4.0142    5.2936   -5.9367 H   0  0  0  0  0  0  0  0  0  0  0  0
    2.4673    4.4062   -6.0227 H   0  0  0  0  0  0  0  0  0  0  0  0
    3.7790    4.0395   -7.1655 H   0  0  0  0  0  0  0  0  0  0  0  0
    6.1648    4.0046   -5.0534 H   0  0  0  0  0  0  0  0  0  0  0  0
    5.8841    2.8467   -6.3719 H   0  0  0  0  0  0  0  0  0  0  0  0
    6.0218    2.2590   -4.7041 H   0  0  0  0  0  0  0  0  0  0  0  0
    3.8152    5.6436   -3.5664 H   0  0  0  0  0  0  0  0  0  0  0  0
    5.3744    3.9020   -0.2796 H   0  0  0  0  0  0  0  0  0  0  0  0
    7.0467    3.5513   -2.8172 H   0  0  0  0  0  0  0  0  0  0  0  0
    7.2940    2.5949   -1.3619 H   0  0  0  0  0  0  0  0  0  0  0  0
    7.5262    5.6714   -1.4553 H   0  0  0  0  0  0  0  0  0  0  0  0
    8.8839    4.5107   -1.4195 H   0  0  0  0  0  0  0  0  0  0  0  0
    7.7906    4.6610   -0.0243 H   0  0  0  0  0  0  0  0  0  0  0  0
  1  2  1  0
  1 20  1  0
  1 21  1  0
  1 22  1  0
  2  3  1  0
  2 23  1  0
  2 24  1  0
  3  4  1  0
  3  5  1  0
  3 25  1  1
  4 26  1  0
  4 27  1  0
  4 28  1  0
  5  6  1  0
  5  7  1  0
  5 29  1  6
  6 30  1  0
  6 31  1  0
  6 32  1  0
  7  8  1  0
  7 17  1  0
  8  9  2  0
  8 10  1  0
 10 11  1  0
 10 14  1  0
 10 33  1  6
 11 12  1  0
 11 13  1  0
 11 34  1  6
 12 35  1  0
 12 36  1  0
 12 37  1  0
 13 38  1  0
 13 39  1  0
 13 40  1  0
 14 15  1  0
 14 41  1  0
 15 16  2  0
 15 17  1  0
 17 18  1  0
 17 42  1  1
 18 19  1  0
 18 43  1  0
 18 44  1  0
 19 45  1  0
 19 46  1  0
 19 47  1  0
M  END

