
     RDKit          3D

 34 34  0  0  0  0  0  0  0  0999 V2000
    2.0840    0.0212   -2.6831 C   0  0  0  0  0  0  0  0  0  0  0  0
    2.1279    0.4373   -1.2129 C   0  0  0  0  0  0  0  0  0  0  0  0
    3.0520    1.6292   -0.9282 C   0  0  0  0  0  0  0  0  0  0  0  0
    4.4647    1.3402   -1.2037 N   0  0  0  0  0  0  0  0  0  0  0  0
    5.1548    0.6079   -0.1305 C   0  0  0  0  0  0  0  0  0  0  0  0
    5.6903    1.4903    1.0070 C   0  0  0  0  0  0  0  0  0  0  0  0
    6.3511    0.6673    2.1135 C   0  0  0  0  0  0  0  0  0  0  0  0
    5.1950    2.2636   -1.9649 C   0  0  0  0  0  0  0  0  0  0  0  0
    4.7342    3.5226   -2.0179 N   0  0  0  0  0  0  0  0  0  0  0  0
    5.3757    4.4602   -2.7057 C   0  0  0  0  0  0  0  0  0  0  0  0
    6.5661    4.1921   -3.3760 C   0  0  0  0  0  0  0  0  0  0  0  0
    7.2108    5.1692   -4.0288 F   0  0  0  0  0  0  0  0  0  0  0  0
    7.0524    2.8922   -3.3887 C   0  0  0  0  0  0  0  0  0  0  0  0
    6.3574    1.8867   -2.7072 C   0  0  0  0  0  0  0  0  0  0  0  0
    6.8083    0.4689   -2.8792 C   0  0  0  0  0  0  0  0  0  0  0  0
    8.2424    0.0254   -1.8222 Cl  0  0  0  0  0  0  0  0  0  0  0  0
    1.4090   -0.8353   -2.8394 H   0  0  0  0  0  0  0  0  0  0  0  0
    3.0837   -0.2689   -3.0432 H   0  0  0  0  0  0  0  0  0  0  0  0
    1.7291    0.8478   -3.3214 H   0  0  0  0  0  0  0  0  0  0  0  0
    2.4204   -0.4264   -0.5892 H   0  0  0  0  0  0  0  0  0  0  0  0
    1.1147    0.7171   -0.8732 H   0  0  0  0  0  0  0  0  0  0  0  0
    2.9216    1.9555    0.1209 H   0  0  0  0  0  0  0  0  0  0  0  0
    2.7572    2.4875   -1.5448 H   0  0  0  0  0  0  0  0  0  0  0  0
    5.9892    0.0180   -0.5321 H   0  0  0  0  0  0  0  0  0  0  0  0
    4.4399   -0.1264    0.2736 H   0  0  0  0  0  0  0  0  0  0  0  0
    4.8708    2.0999    1.4253 H   0  0  0  0  0  0  0  0  0  0  0  0
    6.4226    2.2022    0.5889 H   0  0  0  0  0  0  0  0  0  0  0  0
    5.6406   -0.0429    2.5695 H   0  0  0  0  0  0  0  0  0  0  0  0
    6.7367    1.3126    2.9184 H   0  0  0  0  0  0  0  0  0  0  0  0
    7.1990    0.0827    1.7200 H   0  0  0  0  0  0  0  0  0  0  0  0
    4.9503    5.4704   -2.7278 H   0  0  0  0  0  0  0  0  0  0  0  0
    7.9555    2.6593   -3.9585 H   0  0  0  0  0  0  0  0  0  0  0  0
    7.1574    0.2927   -3.9041 H   0  0  0  0  0  0  0  0  0  0  0  0
    6.0105   -0.2437   -2.6436 H   0  0  0  0  0  0  0  0  0  0  0  0
  1  2  1  0
  1 17  1  0
  1 18  1  0
  1 19  1  0
  2  3  1  0
  2 20  1  0
  2 21  1  0
  3  4  1  0
  3 22  1  0
  3 23  1  0
  4  5  1  0
  4  8  1  0
  5  6  1  0
  5 24  1  0
  5 25  1  0
  6  7  1  0
  6 26  1  0
  6 27  1  0
  7 28  1  0
  7 29  1  0
  7 30  1  0
  8  9  2  0
  8 14  1  0
  9 10  1  0
 10 11  2  0
 10 31  1  0
 11 12  1  0
 11 13  1  0
 13 14  2  0
 13 32  1  0
 14 15  1  0
 15 16  1  0
 15 33  1  0
 15 34  1  0
M  END

