
     RDKit          3D

 36 38  0  0  0  0  0  0  0  0999 V2000
    6.7256    1.9787   -5.9681 C   0  0  0  0  0  0  0  0  0  0  0  0
    7.3306    2.0513   -4.7067 O   0  0  0  0  0  0  0  0  0  0  0  0
    6.4296    2.2686   -3.6525 C   0  0  0  0  0  0  0  0  0  0  0  0
    7.2128    2.3417   -2.3495 C   0  0  0  0  0  0  0  0  0  0  0  0
    6.3185    2.5390   -1.2184 N   0  0  0  0  0  0  0  0  0  0  0  0
    6.9841    2.7892    0.0523 C   0  0  0  0  0  0  0  0  0  0  0  0
    7.3836    4.2278    0.2146 C   0  0  0  0  0  0  0  0  0  0  0  0
    6.9088    5.3314   -0.4329 C   0  0  0  0  0  0  0  0  0  0  0  0
    7.5563    6.4222    0.0779 O   0  0  0  0  0  0  0  0  0  0  0  0
    8.3981    5.9284    1.0216 C   0  0  0  0  0  0  0  0  0  0  0  0
    9.2510    6.8390    1.7737 C   0  0  0  0  0  0  0  0  0  0  0  0
   10.1126    6.3619    2.7304 C   0  0  0  0  0  0  0  0  0  0  0  0
   11.0397    7.5949    3.5150 S   0  0  0  0  0  0  0  0  0  0  0  0
   10.2722    8.8390    2.5470 C   0  0  0  0  0  0  0  0  0  0  0  0
   10.5223   10.2163    2.6116 C   0  0  0  0  0  0  0  0  0  0  0  0
    9.8135   11.0588    1.7609 C   0  0  0  0  0  0  0  0  0  0  0  0
    8.8686   10.5333    0.8585 C   0  0  0  0  0  0  0  0  0  0  0  0
    8.6201    9.1668    0.7939 C   0  0  0  0  0  0  0  0  0  0  0  0
    9.3236    8.2870    1.6446 C   0  0  0  0  0  0  0  0  0  0  0  0
    8.3309    4.6301    1.1355 N   0  0  0  0  0  0  0  0  0  0  0  0
    7.5168    1.8099   -6.7134 H   0  0  0  0  0  0  0  0  0  0  0  0
    6.1903    2.9150   -6.2288 H   0  0  0  0  0  0  0  0  0  0  0  0
    5.9968    1.1442   -6.0339 H   0  0  0  0  0  0  0  0  0  0  0  0
    5.6801    1.4465   -3.6010 H   0  0  0  0  0  0  0  0  0  0  0  0
    5.8568    3.2084   -3.7961 H   0  0  0  0  0  0  0  0  0  0  0  0
    7.9076    3.1951   -2.4085 H   0  0  0  0  0  0  0  0  0  0  0  0
    7.8441    1.4307   -2.2619 H   0  0  0  0  0  0  0  0  0  0  0  0
    5.6967    1.7386   -1.1254 H   0  0  0  0  0  0  0  0  0  0  0  0
    7.8879    2.1632    0.2143 H   0  0  0  0  0  0  0  0  0  0  0  0
    6.2873    2.5275    0.8677 H   0  0  0  0  0  0  0  0  0  0  0  0
    6.1762    5.5000   -1.2142 H   0  0  0  0  0  0  0  0  0  0  0  0
   10.2353    5.3150    3.0038 H   0  0  0  0  0  0  0  0  0  0  0  0
   11.2566   10.6177    3.3138 H   0  0  0  0  0  0  0  0  0  0  0  0
    9.9928   12.1362    1.7947 H   0  0  0  0  0  0  0  0  0  0  0  0
    8.3216   11.2106    0.1980 H   0  0  0  0  0  0  0  0  0  0  0  0
    7.8874    8.7696    0.0923 H   0  0  0  0  0  0  0  0  0  0  0  0
  1  2  1  0
  1 21  1  0
  1 22  1  0
  1 23  1  0
  2  3  1  0
  3  4  1  0
  3 24  1  0
  3 25  1  0
  4  5  1  0
  4 26  1  0
  4 27  1  0
  5  6  1  0
  5 28  1  0
  6  7  1  0
  6 29  1  0
  6 30  1  0
  7  8  2  0
  7 20  1  0
  8  9  1  0
  8 31  1  0
  9 10  1  0
 10 11  1  0
 10 20  2  0
 11 12  2  0
 11 19  1  0
 12 13  1  0
 12 32  1  0
 13 14  1  0
 14 15  1  0
 14 19  2  0
 15 16  2  0
 15 33  1  0
 16 17  1  0
 16 34  1  0
 17 18  2  0
 17 35  1  0
 18 19  1  0
 18 36  1  0
M  END

