
     RDKit          3D

 43 45  0  0  0  0  0  0  0  0999 V2000
    1.7784    0.4938   -0.9721 C   0  0  0  0  0  0  0  0  0  0  0  0
    2.9093   -0.2376   -0.2461 C   0  0  0  0  0  0  0  0  0  0  0  0
    3.4817   -1.3383   -1.0077 N   0  0  0  0  0  0  0  0  0  0  0  0
    4.4682   -1.1376   -1.9293 C   0  0  0  0  0  0  0  0  0  0  0  0
    4.9330   -0.0019   -2.1020 O   0  0  0  0  0  0  0  0  0  0  0  0
    4.9512   -2.3056   -2.7106 C   0  0  0  0  0  0  0  0  0  0  0  0
    5.7649   -2.0919   -3.8262 C   0  0  0  0  0  0  0  0  0  0  0  0
    6.1987   -0.8546   -4.2571 N   0  0  0  0  0  0  0  0  0  0  0  0
    6.9998   -0.6497   -5.3483 C   0  0  0  0  0  0  0  0  0  0  0  0
    7.4116   -1.5794   -6.0289 O   0  0  0  0  0  0  0  0  0  0  0  0
    7.4366    0.7651   -5.6348 C   0  0  0  0  0  0  0  0  0  0  0  0
    8.7612    0.9047   -6.0895 C   0  0  0  0  0  0  0  0  0  0  0  0
    9.3003    2.1497   -6.4023 C   0  0  0  0  0  0  0  0  0  0  0  0
    8.5054    3.2945   -6.2888 C   0  0  0  0  0  0  0  0  0  0  0  0
    7.1791    3.1826   -5.8730 C   0  0  0  0  0  0  0  0  0  0  0  0
    6.6483    1.9285   -5.5490 C   0  0  0  0  0  0  0  0  0  0  0  0
    4.9549    1.8755   -5.0981 Cl  0  0  0  0  0  0  0  0  0  0  0  0
    6.1891   -3.5738   -4.6341 S   0  0  0  0  0  0  0  0  0  0  0  0
    5.2885   -4.5051   -3.4605 C   0  0  0  0  0  0  0  0  0  0  0  0
    4.6985   -3.7200   -2.5019 C   0  0  0  0  0  0  0  0  0  0  0  0
    3.9154   -4.3517   -1.3685 C   0  0  0  0  0  0  0  0  0  0  0  0
    4.1745   -5.8617   -1.2492 C   0  0  0  0  0  0  0  0  0  0  0  0
    4.1340   -6.5529   -2.6150 C   0  0  0  0  0  0  0  0  0  0  0  0
    5.2368   -6.0074   -3.5329 C   0  0  0  0  0  0  0  0  0  0  0  0
    1.3789    1.3061   -0.3435 H   0  0  0  0  0  0  0  0  0  0  0  0
    0.9464   -0.1880   -1.2141 H   0  0  0  0  0  0  0  0  0  0  0  0
    2.1491    0.9360   -1.9090 H   0  0  0  0  0  0  0  0  0  0  0  0
    2.5531   -0.6427    0.7155 H   0  0  0  0  0  0  0  0  0  0  0  0
    3.7250    0.4663   -0.0284 H   0  0  0  0  0  0  0  0  0  0  0  0
    3.0121   -2.2325   -0.9842 H   0  0  0  0  0  0  0  0  0  0  0  0
    5.8885   -0.0987   -3.6265 H   0  0  0  0  0  0  0  0  0  0  0  0
    9.3563   -0.0045   -6.1929 H   0  0  0  0  0  0  0  0  0  0  0  0
   10.3362    2.2270   -6.7399 H   0  0  0  0  0  0  0  0  0  0  0  0
    8.9117    4.2787   -6.5346 H   0  0  0  0  0  0  0  0  0  0  0  0
    6.5370    4.0620   -5.8030 H   0  0  0  0  0  0  0  0  0  0  0  0
    2.8293   -4.1900   -1.5262 H   0  0  0  0  0  0  0  0  0  0  0  0
    4.1659   -3.8609   -0.4138 H   0  0  0  0  0  0  0  0  0  0  0  0
    3.4366   -6.3096   -0.5640 H   0  0  0  0  0  0  0  0  0  0  0  0
    5.1667   -6.0236   -0.7915 H   0  0  0  0  0  0  0  0  0  0  0  0
    3.1474   -6.3827   -3.0821 H   0  0  0  0  0  0  0  0  0  0  0  0
    4.2460   -7.6432   -2.5013 H   0  0  0  0  0  0  0  0  0  0  0  0
    5.0720   -6.3394   -4.5723 H   0  0  0  0  0  0  0  0  0  0  0  0
    6.2136   -6.4327   -3.2331 H   0  0  0  0  0  0  0  0  0  0  0  0
  1  2  1  0
  1 25  1  0
  1 26  1  0
  1 27  1  0
  2  3  1  0
  2 28  1  0
  2 29  1  0
  3  4  1  0
  3 30  1  0
  4  5  2  0
  4  6  1  0
  6  7  2  0
  6 20  1  0
  7  8  1  0
  7 18  1  0
  8  9  1  0
  8 31  1  0
  9 10  2  0
  9 11  1  0
 11 12  2  0
 11 16  1  0
 12 13  1  0
 12 32  1  0
 13 14  2  0
 13 33  1  0
 14 15  1  0
 14 34  1  0
 15 16  2  0
 15 35  1  0
 16 17  1  0
 18 19  1  0
 19 20  2  0
 19 24  1  0
 20 21  1  0
 21 22  1  0
 21 36  1  0
 21 37  1  0
 22 23  1  0
 22 38  1  0
 22 39  1  0
 23 24  1  0
 23 40  1  0
 23 41  1  0
 24 42  1  0
 24 43  1  0
M  END

