
     RDKit          3D

 65 69  0  0  0  0  0  0  0  0999 V2000
    5.6665   -5.4522   -0.8581 C   0  0  0  0  0  0  0  0  0  0  0  0
    5.9727   -4.0478   -0.6891 N   0  0  0  0  0  0  0  0  0  0  0  0
    6.9223   -3.6080    0.1943 C   0  0  0  0  0  0  0  0  0  0  0  0
    7.5909   -4.3693    0.8777 O   0  0  0  0  0  0  0  0  0  0  0  0
    7.0948   -2.1120    0.2896 C   0  0  0  0  0  0  0  0  0  0  0  0
    7.6814   -1.6085    1.4557 C   0  0  0  0  0  0  0  0  0  0  0  0
    7.8665   -0.2345    1.5950 C   0  0  0  0  0  0  0  0  0  0  0  0
    7.5035    0.6673    0.5882 C   0  0  0  0  0  0  0  0  0  0  0  0
    7.7300    2.1485    0.7700 C   0  0  0  0  0  0  0  0  0  0  0  0
    6.9327    0.1502   -0.6053 C   0  0  0  0  0  0  0  0  0  0  0  0
    6.6094    1.0782   -1.6109 N   0  0  0  0  0  0  0  0  0  0  0  0
    6.1103    0.9507   -2.8827 C   0  0  0  0  0  0  0  0  0  0  0  0
    5.7666   -0.2267   -3.3898 N   0  0  0  0  0  0  0  0  0  0  0  0
    5.2909   -0.2857   -4.6653 C   0  0  0  0  0  0  0  0  0  0  0  0
    4.9997   -1.5337   -5.1470 N   0  0  0  0  0  0  0  0  0  0  0  0
    4.4528   -1.7264   -6.4887 C   0  0  0  0  0  0  0  0  0  0  0  0
    2.9249   -1.8554   -6.5218 C   0  0  0  0  0  0  0  0  0  0  0  0
    2.3344   -2.8874   -5.5339 C   0  0  0  0  0  0  0  0  0  0  0  0
    2.4673   -2.5765   -4.1211 N   0  0  0  0  0  0  0  0  0  0  0  0
    1.7749   -1.3877   -3.6691 C   0  0  0  0  0  0  0  0  0  0  0  0
    3.7182   -2.9020   -3.4599 C   0  0  0  0  0  0  0  0  0  0  0  0
    5.0102   -2.7081   -4.2920 C   0  0  0  0  0  0  0  0  0  0  0  0
    5.0880    0.7569   -5.4849 N   0  0  0  0  0  0  0  0  0  0  0  0
    5.4357    1.9348   -4.9643 C   0  0  0  0  0  0  0  0  0  0  0  0
    5.9625    2.1293   -3.6701 C   0  0  0  0  0  0  0  0  0  0  0  0
    6.1817    3.5340   -3.5749 C   0  0  0  0  0  0  0  0  0  0  0  0
    5.8294    4.1424   -4.6847 N   0  0  0  0  0  0  0  0  0  0  0  0
    5.3683    3.1838   -5.5456 N   0  0  0  0  0  0  0  0  0  0  0  0
    4.9328    3.5720   -6.8427 C   0  0  0  0  0  0  0  0  0  0  0  0
    5.1797    4.8850   -7.2769 C   0  0  0  0  0  0  0  0  0  0  0  0
    4.7555    5.2871   -8.5432 C   0  0  0  0  0  0  0  0  0  0  0  0
    4.0875    4.3959   -9.3892 C   0  0  0  0  0  0  0  0  0  0  0  0
    3.8447    3.0923   -8.9502 C   0  0  0  0  0  0  0  0  0  0  0  0
    4.2591    2.6722   -7.6836 C   0  0  0  0  0  0  0  0  0  0  0  0
    6.7289   -1.2326   -0.7395 C   0  0  0  0  0  0  0  0  0  0  0  0
    5.6695   -5.7369   -1.9233 H   0  0  0  0  0  0  0  0  0  0  0  0
    4.6827   -5.7152   -0.4307 H   0  0  0  0  0  0  0  0  0  0  0  0
    6.4379   -6.0282   -0.3307 H   0  0  0  0  0  0  0  0  0  0  0  0
    5.3516   -3.3653   -1.1034 H   0  0  0  0  0  0  0  0  0  0  0  0
    7.9844   -2.3079    2.2360 H   0  0  0  0  0  0  0  0  0  0  0  0
    8.3134    0.1586    2.5123 H   0  0  0  0  0  0  0  0  0  0  0  0
    8.1730    2.3590    1.7530 H   0  0  0  0  0  0  0  0  0  0  0  0
    6.7887    2.7243    0.7086 H   0  0  0  0  0  0  0  0  0  0  0  0
    8.4192    2.5600    0.0102 H   0  0  0  0  0  0  0  0  0  0  0  0
    6.8199    2.0357   -1.3649 H   0  0  0  0  0  0  0  0  0  0  0  0
    4.9104   -2.6452   -6.8965 H   0  0  0  0  0  0  0  0  0  0  0  0
    4.7782   -0.8889   -7.1169 H   0  0  0  0  0  0  0  0  0  0  0  0
    2.6232   -2.1321   -7.5479 H   0  0  0  0  0  0  0  0  0  0  0  0
    2.4750   -0.8683   -6.3236 H   0  0  0  0  0  0  0  0  0  0  0  0
    2.7824   -3.8809   -5.7183 H   0  0  0  0  0  0  0  0  0  0  0  0
    1.2585   -2.9993   -5.7618 H   0  0  0  0  0  0  0  0  0  0  0  0
    0.7521   -1.3772   -4.0828 H   0  0  0  0  0  0  0  0  0  0  0  0
    2.2521   -0.4232   -3.9487 H   0  0  0  0  0  0  0  0  0  0  0  0
    1.6775   -1.3995   -2.5712 H   0  0  0  0  0  0  0  0  0  0  0  0
    3.7193   -3.9587   -3.1155 H   0  0  0  0  0  0  0  0  0  0  0  0
    3.7843   -2.2751   -2.5572 H   0  0  0  0  0  0  0  0  0  0  0  0
    5.1532   -3.5769   -4.9523 H   0  0  0  0  0  0  0  0  0  0  0  0
    5.8775   -2.6792   -3.6173 H   0  0  0  0  0  0  0  0  0  0  0  0
    6.5780    4.1248   -2.7475 H   0  0  0  0  0  0  0  0  0  0  0  0
    5.6981    5.5721   -6.6100 H   0  0  0  0  0  0  0  0  0  0  0  0
    4.9528    6.3111   -8.8711 H   0  0  0  0  0  0  0  0  0  0  0  0
    3.7589    4.7160  -10.3809 H   0  0  0  0  0  0  0  0  0  0  0  0
    3.3208    2.3850   -9.5985 H   0  0  0  0  0  0  0  0  0  0  0  0
    4.0708    1.6573   -7.3413 H   0  0  0  0  0  0  0  0  0  0  0  0
    6.3107   -1.5880   -1.6766 H   0  0  0  0  0  0  0  0  0  0  0  0
  1  2  1  0
  1 36  1  0
  1 37  1  0
  1 38  1  0
  2  3  1  0
  2 39  1  0
  3  4  2  0
  3  5  1  0
  5  6  2  0
  5 35  1  0
  6  7  1  0
  6 40  1  0
  7  8  2  0
  7 41  1  0
  8  9  1  0
  8 10  1  0
  9 42  1  0
  9 43  1  0
  9 44  1  0
 10 11  1  0
 10 35  2  0
 11 12  1  0
 11 45  1  0
 12 13  2  0
 12 25  1  0
 13 14  1  0
 14 15  1  0
 14 23  2  0
 15 16  1  0
 15 22  1  0
 16 17  1  0
 16 46  1  0
 16 47  1  0
 17 18  1  0
 17 48  1  0
 17 49  1  0
 18 19  1  0
 18 50  1  0
 18 51  1  0
 19 20  1  0
 19 21  1  0
 20 52  1  0
 20 53  1  0
 20 54  1  0
 21 22  1  0
 21 55  1  0
 21 56  1  0
 22 57  1  0
 22 58  1  0
 23 24  1  0
 24 25  2  0
 24 28  1  0
 25 26  1  0
 26 27  2  0
 26 59  1  0
 27 28  1  0
 28 29  1  0
 29 30  2  0
 29 34  1  0
 30 31  1  0
 30 60  1  0
 31 32  2  0
 31 61  1  0
 32 33  1  0
 32 62  1  0
 33 34  2  0
 33 63  1  0
 34 64  1  0
 35 65  1  0
M  END

