
     RDKit          3D

 24 25  0  0  0  0  0  0  0  0999 V2000
    1.1129   -0.1575    0.0384 N   0  0  0  0  0  0  0  0  0  0  0  0
    2.4841   -0.1964   -0.0158 C   0  0  0  0  0  0  0  0  0  0  0  0
    3.2227   -1.2786   -0.0008 N   0  0  0  0  0  0  0  0  0  0  0  0
    4.5287   -0.8227    0.0112 C   0  0  0  0  0  0  0  0  0  0  0  0
    5.7367   -1.5300    0.0306 C   0  0  0  0  0  0  0  0  0  0  0  0
    6.9372   -0.8148    0.0274 C   0  0  0  0  0  0  0  0  0  0  0  0
    6.9305    0.5903    0.0047 C   0  0  0  0  0  0  0  0  0  0  0  0
    8.4607    1.4518    0.0020 Cl  0  0  0  0  0  0  0  0  0  0  0  0
    5.7433    1.3310   -0.0185 C   0  0  0  0  0  0  0  0  0  0  0  0
    4.5572    0.5979   -0.0120 C   0  0  0  0  0  0  0  0  0  0  0  0
    3.2196    0.9850   -0.0217 N   0  0  0  0  0  0  0  0  0  0  0  0
    2.6827    2.3288    0.0757 C   0  0  0  0  0  0  0  0  0  0  0  0
    2.2848    2.9249   -1.2778 C   0  0  0  0  0  0  0  0  0  0  0  0
    1.3144    2.1331   -1.9460 O   0  0  0  0  0  0  0  0  0  0  0  0
    0.6912   -1.0777   -0.0300 H   0  0  0  0  0  0  0  0  0  0  0  0
    0.6754    0.5516   -0.5480 H   0  0  0  0  0  0  0  0  0  0  0  0
    5.7338   -2.6216    0.0494 H   0  0  0  0  0  0  0  0  0  0  0  0
    7.8941   -1.3387    0.0429 H   0  0  0  0  0  0  0  0  0  0  0  0
    5.7716    2.4212   -0.0402 H   0  0  0  0  0  0  0  0  0  0  0  0
    3.4311    2.9743    0.5626 H   0  0  0  0  0  0  0  0  0  0  0  0
    1.8004    2.2964    0.7357 H   0  0  0  0  0  0  0  0  0  0  0  0
    3.1808    3.0696   -1.9080 H   0  0  0  0  0  0  0  0  0  0  0  0
    1.8389    3.9191   -1.1076 H   0  0  0  0  0  0  0  0  0  0  0  0
    1.7748    1.4877   -2.4981 H   0  0  0  0  0  0  0  0  0  0  0  0
  1  2  1  0
  1 15  1  0
  1 16  1  0
  2  3  2  0
  2 11  1  0
  3  4  1  0
  4  5  2  0
  4 10  1  0
  5  6  1  0
  5 17  1  0
  6  7  2  0
  6 18  1  0
  7  8  1  0
  7  9  1  0
  9 10  2  0
  9 19  1  0
 10 11  1  0
 11 12  1  0
 12 13  1  0
 12 20  1  0
 12 21  1  0
 13 14  1  0
 13 22  1  0
 13 23  1  0
 14 24  1  0
M  END

