
     RDKit          3D

 49 52  0  0  0  0  0  0  0  0999 V2000
    1.5806    0.6522    0.0843 O   0  0  0  0  0  0  0  0  0  0  0  0
    2.6652    0.1368   -0.0716 C   0  0  0  0  0  0  0  0  0  0  0  0
    3.0454   -1.1180    0.3458 N   0  0  0  0  0  0  0  0  0  0  0  0
    2.2753   -2.0434    1.0711 C   0  0  0  0  0  0  0  0  0  0  0  0
    2.3218   -3.4174    0.7318 C   0  0  0  0  0  0  0  0  0  0  0  0
    1.5676   -4.2849    1.4822 C   0  0  0  0  0  0  0  0  0  0  0  0
    0.7760   -3.7372    2.5308 C   0  0  0  0  0  0  0  0  0  0  0  0
   -0.0016   -4.5794    3.2864 N   0  0  0  0  0  0  0  0  0  0  0  0
   -0.8785   -4.3420    4.3647 C   0  0  0  0  0  0  0  0  0  0  0  0
   -1.5276   -5.4566    4.9258 C   0  0  0  0  0  0  0  0  0  0  0  0
   -2.4131   -5.3299    5.9916 C   0  0  0  0  0  0  0  0  0  0  0  0
   -2.6986   -4.0626    6.5530 C   0  0  0  0  0  0  0  0  0  0  0  0
   -3.5768   -3.9232    7.6094 N   0  0  0  0  0  0  0  0  0  0  0  0
   -4.3725   -5.0174    8.1466 C   0  0  0  0  0  0  0  0  0  0  0  0
   -5.3834   -4.3164    9.0646 C   0  0  0  0  0  0  0  0  0  0  0  0
   -4.6214   -3.0709    9.5366 C   0  0  0  0  0  0  0  0  0  0  0  0
   -3.8196   -2.6609    8.2941 C   0  0  0  0  0  0  0  0  0  0  0  0
   -2.0420   -2.9484    5.9815 C   0  0  0  0  0  0  0  0  0  0  0  0
   -1.1522   -3.0780    4.9161 C   0  0  0  0  0  0  0  0  0  0  0  0
    0.7869   -2.4217    2.7887 N   0  0  0  0  0  0  0  0  0  0  0  0
    1.5393   -1.5965    2.0784 N   0  0  0  0  0  0  0  0  0  0  0  0
    3.7907    0.8898   -0.7955 C   0  0  1  0  0  0  0  0  0  0  0  0
    4.2742    2.1213   -0.0078 C   0  0  0  0  0  0  0  0  0  0  0  0
    5.7382    2.2264   -0.4488 C   0  0  0  0  0  0  0  0  0  0  0  0
    6.1313    0.7532   -0.5691 C   0  0  0  0  0  0  0  0  0  0  0  0
    4.9492    0.0750   -1.0051 O   0  0  0  0  0  0  0  0  0  0  0  0
    3.9537   -1.4087   -0.0085 H   0  0  0  0  0  0  0  0  0  0  0  0
    2.9327   -3.7674   -0.1038 H   0  0  0  0  0  0  0  0  0  0  0  0
    1.5615   -5.3587    1.2753 H   0  0  0  0  0  0  0  0  0  0  0  0
    0.0589   -5.5532    3.0181 H   0  0  0  0  0  0  0  0  0  0  0  0
   -1.3330   -6.4556    4.5207 H   0  0  0  0  0  0  0  0  0  0  0  0
   -2.8791   -6.2298    6.3940 H   0  0  0  0  0  0  0  0  0  0  0  0
   -3.7474   -5.7407    8.7112 H   0  0  0  0  0  0  0  0  0  0  0  0
   -4.8703   -5.5874    7.3419 H   0  0  0  0  0  0  0  0  0  0  0  0
   -5.7250   -4.9602    9.8890 H   0  0  0  0  0  0  0  0  0  0  0  0
   -6.2724   -4.0186    8.4840 H   0  0  0  0  0  0  0  0  0  0  0  0
   -3.9329   -3.3361   10.3564 H   0  0  0  0  0  0  0  0  0  0  0  0
   -5.2786   -2.2673    9.9012 H   0  0  0  0  0  0  0  0  0  0  0  0
   -2.8730   -2.1575    8.5584 H   0  0  0  0  0  0  0  0  0  0  0  0
   -4.3916   -1.9533    7.6586 H   0  0  0  0  0  0  0  0  0  0  0  0
   -2.2323   -1.9465    6.3682 H   0  0  0  0  0  0  0  0  0  0  0  0
   -0.6636   -2.2016    4.4968 H   0  0  0  0  0  0  0  0  0  0  0  0
    3.3803    1.1939   -1.7759 H   0  0  0  0  0  0  0  0  0  0  0  0
    4.2089    1.9266    1.0753 H   0  0  0  0  0  0  0  0  0  0  0  0
    3.6702    3.0127   -0.2231 H   0  0  0  0  0  0  0  0  0  0  0  0
    6.3704    2.7805    0.2610 H   0  0  0  0  0  0  0  0  0  0  0  0
    5.8118    2.7232   -1.4303 H   0  0  0  0  0  0  0  0  0  0  0  0
    6.4593    0.3471    0.4074 H   0  0  0  0  0  0  0  0  0  0  0  0
    6.9327    0.5672   -1.3019 H   0  0  0  0  0  0  0  0  0  0  0  0
  1  2  2  0
  2  3  1  0
  2 22  1  0
  3  4  1  0
  3 27  1  0
  4  5  2  0
  4 21  1  0
  5  6  1  0
  5 28  1  0
  6  7  2  0
  6 29  1  0
  7  8  1  0
  7 20  1  0
  8  9  1  0
  8 30  1  0
  9 10  2  0
  9 19  1  0
 10 11  1  0
 10 31  1  0
 11 12  2  0
 11 32  1  0
 12 13  1  0
 12 18  1  0
 13 14  1  0
 13 17  1  0
 14 15  1  0
 14 33  1  0
 14 34  1  0
 15 16  1  0
 15 35  1  0
 15 36  1  0
 16 17  1  0
 16 37  1  0
 16 38  1  0
 17 39  1  0
 17 40  1  0
 18 19  2  0
 18 41  1  0
 19 42  1  0
 20 21  2  0
 22 23  1  0
 22 26  1  0
 22 43  1  6
 23 24  1  0
 23 44  1  0
 23 45  1  0
 24 25  1  0
 24 46  1  0
 24 47  1  0
 25 26  1  0
 25 48  1  0
 25 49  1  0
M  END

