
     RDKit          3D

 51 52  0  0  0  0  0  0  0  0999 V2000
    2.3798    1.4890    0.2296 C   0  0  0  0  0  0  0  0  0  0  0  0
    2.1610    0.0596    0.3789 N   0  0  0  0  0  0  0  0  0  0  0  0
    1.1516   -0.5555   -0.4783 C   0  0  0  0  0  0  0  0  0  0  0  0
   -0.2361   -0.6421    0.1666 C   0  0  0  0  0  0  0  0  0  0  0  0
   -0.7396    0.6237    0.5380 O   0  0  0  0  0  0  0  0  0  0  0  0
    2.9995   -0.6915    1.1779 C   0  0  0  0  0  0  0  0  0  0  0  0
    4.1194   -0.1081    1.8258 C   0  0  0  0  0  0  0  0  0  0  0  0
    4.9564   -0.8684    2.6315 C   0  0  0  0  0  0  0  0  0  0  0  0
    4.7500   -2.2473    2.8500 C   0  0  0  0  0  0  0  0  0  0  0  0
    5.6640   -2.9841    3.7046 C   0  0  0  0  0  0  0  0  0  0  0  0
    5.6183   -4.3093    4.0209 C   0  0  0  0  0  0  0  0  0  0  0  0
    6.5548   -5.0159    4.8624 C   0  0  0  0  0  0  0  0  0  0  0  0
    6.3914   -6.3687    5.0548 C   0  0  0  0  0  0  0  0  0  0  0  0
    7.2875   -7.1661    5.8364 C   0  0  0  0  0  0  0  0  0  0  0  0
    7.0602   -8.5203    6.0438 C   0  0  0  0  0  0  0  0  0  0  0  0
    5.9219   -9.1862    5.4847 C   0  0  0  0  0  0  0  0  0  0  0  0
    4.9922   -9.7117    5.0250 N   0  0  0  0  0  0  0  0  0  0  0  0
    7.9552   -9.3244    6.8185 C   0  0  0  0  0  0  0  0  0  0  0  0
    8.6846   -9.9743    7.4498 N   0  0  0  0  0  0  0  0  0  0  0  0
    8.5183   -6.4984    6.3971 C   0  0  0  0  0  0  0  0  0  0  0  0
    8.3023   -5.0094    6.7463 C   0  0  1  0  0  0  0  0  0  0  0  0
    7.3421   -4.8752    7.9444 C   0  0  0  0  0  0  0  0  0  0  0  0
    9.6533   -4.3749    7.1128 C   0  0  0  0  0  0  0  0  0  0  0  0
    7.7199   -4.2963    5.5045 C   0  0  0  0  0  0  0  0  0  0  0  0
    3.6337   -2.8247    2.2014 C   0  0  0  0  0  0  0  0  0  0  0  0
    2.7859   -2.0814    1.3972 C   0  0  0  0  0  0  0  0  0  0  0  0
    1.5181    1.9296   -0.2855 H   0  0  0  0  0  0  0  0  0  0  0  0
    3.2956    1.7221   -0.3476 H   0  0  0  0  0  0  0  0  0  0  0  0
    2.4676    1.9858    1.2100 H   0  0  0  0  0  0  0  0  0  0  0  0
    1.4814   -1.5573   -0.7962 H   0  0  0  0  0  0  0  0  0  0  0  0
    1.0725    0.0498   -1.3955 H   0  0  0  0  0  0  0  0  0  0  0  0
   -0.2113   -1.3357    1.0293 H   0  0  0  0  0  0  0  0  0  0  0  0
   -0.9403   -1.0659   -0.5690 H   0  0  0  0  0  0  0  0  0  0  0  0
   -0.2828    0.9009    1.3427 H   0  0  0  0  0  0  0  0  0  0  0  0
    4.3472    0.9480    1.6891 H   0  0  0  0  0  0  0  0  0  0  0  0
    5.8110   -0.3790    3.1079 H   0  0  0  0  0  0  0  0  0  0  0  0
    6.4748   -2.3798    4.1242 H   0  0  0  0  0  0  0  0  0  0  0  0
    4.8182   -4.9267    3.6010 H   0  0  0  0  0  0  0  0  0  0  0  0
    5.5367   -6.8671    4.5902 H   0  0  0  0  0  0  0  0  0  0  0  0
    9.3121   -6.5719    5.6292 H   0  0  0  0  0  0  0  0  0  0  0  0
    8.8943   -7.0500    7.2720 H   0  0  0  0  0  0  0  0  0  0  0  0
    7.7463   -5.3960    8.8272 H   0  0  0  0  0  0  0  0  0  0  0  0
    6.3491   -5.2988    7.7310 H   0  0  0  0  0  0  0  0  0  0  0  0
    7.2041   -3.8158    8.2151 H   0  0  0  0  0  0  0  0  0  0  0  0
   10.0915   -4.8627    7.9983 H   0  0  0  0  0  0  0  0  0  0  0  0
    9.5353   -3.3039    7.3449 H   0  0  0  0  0  0  0  0  0  0  0  0
   10.3781   -4.4632    6.2871 H   0  0  0  0  0  0  0  0  0  0  0  0
    8.5147   -4.1839    4.7426 H   0  0  0  0  0  0  0  0  0  0  0  0
    7.4261   -3.2713    5.7814 H   0  0  0  0  0  0  0  0  0  0  0  0
    3.4160   -3.8866    2.3348 H   0  0  0  0  0  0  0  0  0  0  0  0
    1.9335   -2.5855    0.9433 H   0  0  0  0  0  0  0  0  0  0  0  0
  1  2  1  0
  1 27  1  0
  1 28  1  0
  1 29  1  0
  2  3  1  0
  2  6  1  0
  3  4  1  0
  3 30  1  0
  3 31  1  0
  4  5  1  0
  4 32  1  0
  4 33  1  0
  5 34  1  0
  6  7  2  0
  6 26  1  0
  7  8  1  0
  7 35  1  0
  8  9  2  0
  8 36  1  0
  9 10  1  0
  9 25  1  0
 10 11  2  0
 10 37  1  0
 11 12  1  0
 11 38  1  0
 12 13  2  0
 12 24  1  0
 13 14  1  0
 13 39  1  0
 14 15  2  0
 14 20  1  0
 15 16  1  0
 15 18  1  0
 16 17  3  0
 18 19  3  0
 20 21  1  0
 20 40  1  0
 20 41  1  0
 21 22  1  1
 21 23  1  0
 21 24  1  0
 22 42  1  0
 22 43  1  0
 22 44  1  0
 23 45  1  0
 23 46  1  0
 23 47  1  0
 24 48  1  0
 24 49  1  0
 25 26  2  0
 25 50  1  0
 26 51  1  0
M  END

