
     RDKit          3D

 52 55  0  0  0  0  0  0  0  0999 V2000
    7.5691   -1.0964   -6.7472 C   0  0  0  0  0  0  0  0  0  0  0  0
    6.7746   -1.4547   -5.6365 O   0  0  0  0  0  0  0  0  0  0  0  0
    6.2595   -0.4715   -4.8588 C   0  0  0  0  0  0  0  0  0  0  0  0
    6.3648    0.8838   -5.1353 C   0  0  0  0  0  0  0  0  0  0  0  0
    5.8056    1.8389   -4.2548 C   0  0  0  0  0  0  0  0  0  0  0  0
    5.1540    1.4518   -3.1031 C   0  0  0  0  0  0  0  0  0  0  0  0
    5.0299    0.0725   -2.7840 C   0  0  0  0  0  0  0  0  0  0  0  0
    4.3813   -0.4071   -1.5922 C   0  0  0  0  0  0  0  0  0  0  0  0
    3.7787    0.5537   -0.6023 C   0  0  0  0  0  0  0  0  0  0  0  0
    4.3248   -1.7649   -1.3714 C   0  0  0  0  0  0  0  0  0  0  0  0
    4.8961   -2.6505   -2.3291 C   0  0  0  0  0  0  0  0  0  0  0  0
    4.8296   -4.0351   -2.1048 N   0  0  0  0  0  0  0  0  0  0  0  0
    4.3104   -4.5077   -0.9328 N   0  0  0  0  0  0  0  0  0  0  0  0
    4.3823   -5.8248   -1.0136 C   0  0  0  0  0  0  0  0  0  0  0  0
    3.8992   -6.6887    0.1092 C   0  0  0  0  0  0  0  0  0  0  0  0
    4.9535   -6.2495   -2.2495 C   0  0  0  0  0  0  0  0  0  0  0  0
    5.2301   -5.0789   -2.9312 C   0  0  0  0  0  0  0  0  0  0  0  0
    5.7578   -4.8333   -4.1829 N   0  0  0  0  0  0  0  0  0  0  0  0
    6.1044   -5.8128   -5.0911 C   0  0  0  0  0  0  0  0  0  0  0  0
    6.0345   -7.0082   -4.8498 O   0  0  0  0  0  0  0  0  0  0  0  0
    6.5549   -5.2660   -6.4019 C   0  0  0  0  0  0  0  0  0  0  0  0
    6.9625   -6.1057   -7.3729 C   0  0  0  0  0  0  0  0  0  0  0  0
    7.4081   -5.7621   -8.7257 C   0  0  0  0  0  0  0  0  0  0  0  0
    7.2691   -4.4751   -9.2858 C   0  0  0  0  0  0  0  0  0  0  0  0
    7.7175   -4.2040  -10.5733 C   0  0  0  0  0  0  0  0  0  0  0  0
    8.3182   -5.2073  -11.3467 C   0  0  0  0  0  0  0  0  0  0  0  0
    8.8671   -4.8316  -12.9517 Cl  0  0  0  0  0  0  0  0  0  0  0  0
    8.4560   -6.4980  -10.8099 C   0  0  0  0  0  0  0  0  0  0  0  0
    9.1855   -7.7804  -11.7316 Cl  0  0  0  0  0  0  0  0  0  0  0  0
    7.9992   -6.7635   -9.5167 C   0  0  0  0  0  0  0  0  0  0  0  0
    5.4902   -2.2383   -3.4278 N   0  0  0  0  0  0  0  0  0  0  0  0
    5.5765   -0.9063   -3.6703 C   0  0  0  0  0  0  0  0  0  0  0  0
    7.9407   -2.0330   -7.1835 H   0  0  0  0  0  0  0  0  0  0  0  0
    8.4322   -0.4769   -6.4464 H   0  0  0  0  0  0  0  0  0  0  0  0
    6.9867   -0.5493   -7.5103 H   0  0  0  0  0  0  0  0  0  0  0  0
    6.8789    1.2298   -6.0315 H   0  0  0  0  0  0  0  0  0  0  0  0
    5.9013    2.8996   -4.4990 H   0  0  0  0  0  0  0  0  0  0  0  0
    4.7362    2.2051   -2.4344 H   0  0  0  0  0  0  0  0  0  0  0  0
    2.9969    1.1735   -1.0716 H   0  0  0  0  0  0  0  0  0  0  0  0
    4.5388    1.2453   -0.2028 H   0  0  0  0  0  0  0  0  0  0  0  0
    3.3271    0.0176    0.2435 H   0  0  0  0  0  0  0  0  0  0  0  0
    3.8547   -2.1915   -0.4872 H   0  0  0  0  0  0  0  0  0  0  0  0
    3.5144   -6.0639    0.9270 H   0  0  0  0  0  0  0  0  0  0  0  0
    4.7119   -7.3216    0.5018 H   0  0  0  0  0  0  0  0  0  0  0  0
    3.0950   -7.3639   -0.2266 H   0  0  0  0  0  0  0  0  0  0  0  0
    5.1421   -7.2530   -2.6127 H   0  0  0  0  0  0  0  0  0  0  0  0
    5.8793   -3.8331   -4.3912 H   0  0  0  0  0  0  0  0  0  0  0  0
    6.5310   -4.1807   -6.5361 H   0  0  0  0  0  0  0  0  0  0  0  0
    6.9651   -7.1701   -7.1133 H   0  0  0  0  0  0  0  0  0  0  0  0
    6.7857   -3.6804   -8.7151 H   0  0  0  0  0  0  0  0  0  0  0  0
    7.6025   -3.2090  -11.0064 H   0  0  0  0  0  0  0  0  0  0  0  0
    8.1145   -7.7737   -9.1198 H   0  0  0  0  0  0  0  0  0  0  0  0
  1  2  1  0
  1 33  1  0
  1 34  1  0
  1 35  1  0
  2  3  1  0
  3  4  2  0
  3 32  1  0
  4  5  1  0
  4 36  1  0
  5  6  2  0
  5 37  1  0
  6  7  1  0
  6 38  1  0
  7  8  1  0
  7 32  2  0
  8  9  1  0
  8 10  2  0
  9 39  1  0
  9 40  1  0
  9 41  1  0
 10 11  1  0
 10 42  1  0
 11 12  1  0
 11 31  2  0
 12 13  1  0
 12 17  1  0
 13 14  2  0
 14 15  1  0
 14 16  1  0
 15 43  1  0
 15 44  1  0
 15 45  1  0
 16 17  2  0
 16 46  1  0
 17 18  1  0
 18 19  1  0
 18 47  1  0
 19 20  2  0
 19 21  1  0
 21 22  2  0
 21 48  1  0
 22 23  1  0
 22 49  1  0
 23 24  2  0
 23 30  1  0
 24 25  1  0
 24 50  1  0
 25 26  2  0
 25 51  1  0
 26 27  1  0
 26 28  1  0
 28 29  1  0
 28 30  2  0
 30 52  1  0
 31 32  1  0
M  END

