
     RDKit          3D

 46 48  0  0  0  0  0  0  0  0999 V2000
    4.2699   -1.4861    1.9674 C   0  0  0  0  0  0  0  0  0  0  0  0
    4.0479   -0.6063    0.7610 C   0  0  0  0  0  0  0  0  0  0  0  0
    4.7416    0.6054    0.6261 C   0  0  0  0  0  0  0  0  0  0  0  0
    4.5817    1.4228   -0.4964 C   0  0  0  0  0  0  0  0  0  0  0  0
    3.7100    1.0392   -1.5170 C   0  0  0  0  0  0  0  0  0  0  0  0
    2.9965   -0.1554   -1.3943 C   0  0  0  0  0  0  0  0  0  0  0  0
    3.1518   -0.9768   -0.2676 C   0  0  0  0  0  0  0  0  0  0  0  0
    2.4550   -2.3182   -0.2181 C   0  0  0  0  0  0  0  0  0  0  0  0
    3.1113   -3.3492   -0.1812 O   0  0  0  0  0  0  0  0  0  0  0  0
    1.0770   -2.3312   -0.2641 N   0  0  0  0  0  0  0  0  0  0  0  0
    0.2089   -1.1877   -0.0121 C   0  0  0  0  0  0  0  0  0  0  0  0
   -0.9123   -1.1026   -1.0573 C   0  0  0  0  0  0  0  0  0  0  0  0
   -1.6924   -2.4192   -1.1917 C   0  0  2  0  0  0  0  0  0  0  0  0
   -2.5536   -2.6207   -0.0237 N   0  0  0  0  0  0  0  0  0  0  0  0
   -3.6562   -3.4272   -0.0854 C   0  0  0  0  0  0  0  0  0  0  0  0
   -3.9578   -4.0410   -1.0984 O   0  0  0  0  0  0  0  0  0  0  0  0
   -4.4985   -3.5142    1.1651 C   0  0  0  0  0  0  0  0  0  0  0  0
   -5.8233   -3.9521    1.0213 C   0  0  0  0  0  0  0  0  0  0  0  0
   -6.6527   -4.0581    2.1376 C   0  0  0  0  0  0  0  0  0  0  0  0
   -6.1723   -3.7461    3.4138 C   0  0  0  0  0  0  0  0  0  0  0  0
   -4.8459   -3.3303    3.5539 C   0  0  0  0  0  0  0  0  0  0  0  0
   -4.1628   -2.9263    5.2897 Br  0  0  0  0  0  0  0  0  0  0  0  0
   -4.0057   -3.2135    2.4443 C   0  0  0  0  0  0  0  0  0  0  0  0
   -0.7122   -3.5927   -1.3905 C   0  0  0  0  0  0  0  0  0  0  0  0
    0.3802   -3.6177   -0.3208 C   0  0  0  0  0  0  0  0  0  0  0  0
    4.9454   -1.0050    2.6893 H   0  0  0  0  0  0  0  0  0  0  0  0
    4.6983   -2.4535    1.6659 H   0  0  0  0  0  0  0  0  0  0  0  0
    3.3236   -1.7128    2.4859 H   0  0  0  0  0  0  0  0  0  0  0  0
    5.4300    0.9099    1.4195 H   0  0  0  0  0  0  0  0  0  0  0  0
    5.1437    2.3571   -0.5738 H   0  0  0  0  0  0  0  0  0  0  0  0
    3.5856    1.6637   -2.4052 H   0  0  0  0  0  0  0  0  0  0  0  0
    2.3174   -0.4659   -2.1930 H   0  0  0  0  0  0  0  0  0  0  0  0
    0.7996   -0.2646   -0.0071 H   0  0  0  0  0  0  0  0  0  0  0  0
   -0.2277   -1.2842    1.0041 H   0  0  0  0  0  0  0  0  0  0  0  0
   -0.4664   -0.8666   -2.0369 H   0  0  0  0  0  0  0  0  0  0  0  0
   -1.5969   -0.2740   -0.8083 H   0  0  0  0  0  0  0  0  0  0  0  0
   -2.3561   -2.3728   -2.0695 H   0  0  0  0  0  0  0  0  0  0  0  0
   -2.4409   -2.0138    0.7781 H   0  0  0  0  0  0  0  0  0  0  0  0
   -6.1774   -4.2065    0.0210 H   0  0  0  0  0  0  0  0  0  0  0  0
   -7.6871   -4.3911    2.0210 H   0  0  0  0  0  0  0  0  0  0  0  0
   -6.8164   -3.8315    4.2904 H   0  0  0  0  0  0  0  0  0  0  0  0
   -2.9660   -2.9188    2.5956 H   0  0  0  0  0  0  0  0  0  0  0  0
   -0.2455   -3.4921   -2.3851 H   0  0  0  0  0  0  0  0  0  0  0  0
   -1.2745   -4.5383   -1.3907 H   0  0  0  0  0  0  0  0  0  0  0  0
    1.1302   -4.3924   -0.5192 H   0  0  0  0  0  0  0  0  0  0  0  0
   -0.0660   -3.8377    0.6686 H   0  0  0  0  0  0  0  0  0  0  0  0
  1  2  1  0
  1 26  1  0
  1 27  1  0
  1 28  1  0
  2  3  2  0
  2  7  1  0
  3  4  1  0
  3 29  1  0
  4  5  2  0
  4 30  1  0
  5  6  1  0
  5 31  1  0
  6  7  2  0
  6 32  1  0
  7  8  1  0
  8  9  2  0
  8 10  1  0
 10 11  1  0
 10 25  1  0
 11 12  1  0
 11 33  1  0
 11 34  1  0
 12 13  1  0
 12 35  1  0
 12 36  1  0
 13 14  1  0
 13 24  1  0
 13 37  1  6
 14 15  1  0
 14 38  1  0
 15 16  2  0
 15 17  1  0
 17 18  2  0
 17 23  1  0
 18 19  1  0
 18 39  1  0
 19 20  2  0
 19 40  1  0
 20 21  1  0
 20 41  1  0
 21 22  1  0
 21 23  2  0
 23 42  1  0
 24 25  1  0
 24 43  1  0
 24 44  1  0
 25 45  1  0
 25 46  1  0
M  END

