
     RDKit          3D

 31 31  0  0  0  0  0  0  0  0999 V2000
    1.0955   -0.0217    0.1846 C   0  0  0  0  0  0  0  0  0  0  0  0
    2.3038    0.0260    0.1144 C   0  0  0  0  0  0  0  0  0  0  0  0
    3.7763    0.0919    0.0170 C   0  0  1  0  0  0  0  0  0  0  0  0
    4.1957   -0.0546   -1.4653 C   0  0  0  0  0  0  0  0  0  0  0  0
    4.2612    1.4443    0.5899 C   0  0  0  0  0  0  0  0  0  0  0  0
    4.2980   -1.0316    0.8253 N   0  0  0  0  0  0  0  0  0  0  0  0
    5.6235   -1.3031    1.0314 C   0  0  0  0  0  0  0  0  0  0  0  0
    6.5259   -0.6498    0.5067 O   0  0  0  0  0  0  0  0  0  0  0  0
    5.8800   -2.4393    1.9462 C   0  0  0  0  0  0  0  0  0  0  0  0
    5.0313   -3.0428    2.8765 C   0  0  0  0  0  0  0  0  0  0  0  0
    5.7568   -4.0712    3.5192 C   0  0  0  0  0  0  0  0  0  0  0  0
    7.0266   -4.0684    2.9621 C   0  0  0  0  0  0  0  0  0  0  0  0
    7.1046   -3.0852    2.0163 N   0  0  0  0  0  0  0  0  0  0  0  0
    8.3266   -2.7907    1.2613 C   0  0  0  0  0  0  0  0  0  0  0  0
    9.1987   -1.7219    1.9150 C   0  0  0  0  0  0  0  0  0  0  0  0
    0.0239   -0.0594    0.2441 H   0  0  0  0  0  0  0  0  0  0  0  0
    3.7721    0.7668   -2.0623 H   0  0  0  0  0  0  0  0  0  0  0  0
    3.8287   -1.0079   -1.8738 H   0  0  0  0  0  0  0  0  0  0  0  0
    5.2910   -0.0306   -1.5361 H   0  0  0  0  0  0  0  0  0  0  0  0
    3.8360    2.2740    0.0061 H   0  0  0  0  0  0  0  0  0  0  0  0
    5.3570    1.4902    0.5431 H   0  0  0  0  0  0  0  0  0  0  0  0
    3.9405    1.5517    1.6364 H   0  0  0  0  0  0  0  0  0  0  0  0
    3.6166   -1.6952    1.1705 H   0  0  0  0  0  0  0  0  0  0  0  0
    4.0055   -2.7459    3.0899 H   0  0  0  0  0  0  0  0  0  0  0  0
    5.4009   -4.7388    4.3012 H   0  0  0  0  0  0  0  0  0  0  0  0
    7.8861   -4.7039    3.1675 H   0  0  0  0  0  0  0  0  0  0  0  0
    8.0388   -2.4714    0.2526 H   0  0  0  0  0  0  0  0  0  0  0  0
    8.8766   -3.7412    1.1741 H   0  0  0  0  0  0  0  0  0  0  0  0
    8.6593   -0.7653    1.9465 H   0  0  0  0  0  0  0  0  0  0  0  0
   10.1183   -1.5786    1.3250 H   0  0  0  0  0  0  0  0  0  0  0  0
    9.4882   -2.0105    2.9381 H   0  0  0  0  0  0  0  0  0  0  0  0
  1  2  3  0
  1 16  1  0
  3  2  1  6
  3  4  1  0
  3  5  1  0
  3  6  1  0
  4 17  1  0
  4 18  1  0
  4 19  1  0
  5 20  1  0
  5 21  1  0
  5 22  1  0
  6  7  1  0
  6 23  1  0
  7  8  2  0
  7  9  1  0
  9 10  2  0
  9 13  1  0
 10 11  1  0
 10 24  1  0
 11 12  2  0
 11 25  1  0
 12 13  1  0
 12 26  1  0
 13 14  1  0
 14 15  1  0
 14 27  1  0
 14 28  1  0
 15 29  1  0
 15 30  1  0
 15 31  1  0
M  END

