
     RDKit          3D

 60 62  0  0  0  0  0  0  0  0999 V2000
    2.1176    4.8834    0.7391 C   0  0  0  0  0  0  0  0  0  0  0  0
    2.0169    3.6608    1.6567 C   0  0  1  0  0  0  0  0  0  0  0  0
    1.7336    4.0499    3.1110 C   0  0  0  0  0  0  0  0  0  0  0  0
    0.9621    2.6802    1.1412 C   0  0  0  0  0  0  0  0  0  0  0  0
    3.2553    2.8742    1.5806 O   0  0  0  0  0  0  0  0  0  0  0  0
    4.4483    3.3818    1.9513 C   0  0  0  0  0  0  0  0  0  0  0  0
    4.6504    4.4982    2.3784 O   0  0  0  0  0  0  0  0  0  0  0  0
    5.4061    2.4101    1.7628 N   0  0  0  0  0  0  0  0  0  0  0  0
    6.7864    2.4872    2.0083 C   0  0  0  0  0  0  0  0  0  0  0  0
    7.4081    3.6390    2.5258 C   0  0  0  0  0  0  0  0  0  0  0  0
    8.7788    3.6261    2.7232 C   0  0  0  0  0  0  0  0  0  0  0  0
    9.3770    4.7268    3.2045 F   0  0  0  0  0  0  0  0  0  0  0  0
    9.5818    2.5071    2.4540 C   0  0  0  0  0  0  0  0  0  0  0  0
    8.9510    1.3600    1.9374 C   0  0  0  0  0  0  0  0  0  0  0  0
    7.5691    1.3664    1.7008 C   0  0  0  0  0  0  0  0  0  0  0  0
    9.7585    0.2319    1.6011 N   0  0  0  0  0  0  0  0  0  0  0  0
    9.5516   -1.1960    2.5734 S   0  0  1  0  0  0  0  0  0  0  0  0
   10.7258   -2.0245    2.2820 O   0  0  0  0  0  0  0  0  0  0  0  0
    9.2133   -0.8282    3.9503 O   0  0  0  0  0  0  0  0  0  0  0  0
    8.1210   -1.9912    1.8496 C   0  0  0  0  0  0  0  0  0  0  0  0
    8.1987   -2.4962    0.5462 C   0  0  0  0  0  0  0  0  0  0  0  0
    7.1001   -3.1631    0.0082 C   0  0  0  0  0  0  0  0  0  0  0  0
    5.9549   -3.3214    0.7930 C   0  0  0  0  0  0  0  0  0  0  0  0
    4.9040   -3.9619    0.2767 F   0  0  0  0  0  0  0  0  0  0  0  0
    5.8766   -2.8336    2.0971 C   0  0  0  0  0  0  0  0  0  0  0  0
    6.9766   -2.1612    2.6332 C   0  0  0  0  0  0  0  0  0  0  0  0
   11.1644    0.5882    1.3615 C   0  0  0  0  0  0  0  0  0  0  0  0
   11.7109    1.4323    2.5129 C   0  0  1  0  0  0  0  0  0  0  0  0
   13.1526    1.8791    2.2917 C   0  0  0  0  0  0  0  0  0  0  0  0
   13.6992    2.6205    3.4201 N   0  0  0  0  0  0  0  0  0  0  0  0
   14.0816    4.2630    3.2724 S   0  0  1  0  0  0  0  0  0  0  0  0
   12.7250    5.0916    4.0994 C   0  0  0  0  0  0  0  0  0  0  0  0
   15.2927    4.4510    4.0740 O   0  0  0  0  0  0  0  0  0  0  0  0
   14.0322    4.6352    1.8550 O   0  0  0  0  0  0  0  0  0  0  0  0
   10.9181    2.6139    2.6653 O   0  0  0  0  0  0  0  0  0  0  0  0
    1.1490    5.4065    0.7129 H   0  0  0  0  0  0  0  0  0  0  0  0
    2.3648    4.5731   -0.2883 H   0  0  0  0  0  0  0  0  0  0  0  0
    2.8853    5.5832    1.0926 H   0  0  0  0  0  0  0  0  0  0  0  0
    0.7498    4.5398    3.1776 H   0  0  0  0  0  0  0  0  0  0  0  0
    2.4964    4.7398    3.4935 H   0  0  0  0  0  0  0  0  0  0  0  0
    1.7116    3.1537    3.7509 H   0  0  0  0  0  0  0  0  0  0  0  0
   -0.0313    3.1534    1.1461 H   0  0  0  0  0  0  0  0  0  0  0  0
    0.9235    1.7822    1.7764 H   0  0  0  0  0  0  0  0  0  0  0  0
    1.1936    2.3665    0.1121 H   0  0  0  0  0  0  0  0  0  0  0  0
    5.0563    1.5330    1.3959 H   0  0  0  0  0  0  0  0  0  0  0  0
    6.8333    4.5316    2.7600 H   0  0  0  0  0  0  0  0  0  0  0  0
    7.1081    0.4830    1.2586 H   0  0  0  0  0  0  0  0  0  0  0  0
    9.1108   -2.3697   -0.0394 H   0  0  0  0  0  0  0  0  0  0  0  0
    7.1163   -3.5704   -1.0043 H   0  0  0  0  0  0  0  0  0  0  0  0
    4.9642   -2.9903    2.6754 H   0  0  0  0  0  0  0  0  0  0  0  0
    6.9582   -1.7668    3.6504 H   0  0  0  0  0  0  0  0  0  0  0  0
   11.2092    1.1550    0.4168 H   0  0  0  0  0  0  0  0  0  0  0  0
   11.7491   -0.3318    1.2452 H   0  0  0  0  0  0  0  0  0  0  0  0
   11.6430    0.8457    3.4478 H   0  0  0  0  0  0  0  0  0  0  0  0
   13.2042    2.5091    1.3887 H   0  0  0  0  0  0  0  0  0  0  0  0
   13.7713    0.9862    2.1052 H   0  0  0  0  0  0  0  0  0  0  0  0
   14.4356    2.1683    3.9562 H   0  0  0  0  0  0  0  0  0  0  0  0
   12.7331    4.7874    5.1535 H   0  0  0  0  0  0  0  0  0  0  0  0
   11.7854    4.8100    3.6097 H   0  0  0  0  0  0  0  0  0  0  0  0
   12.9196    6.1684    4.0016 H   0  0  0  0  0  0  0  0  0  0  0  0
  1  2  1  0
  1 36  1  0
  1 37  1  0
  1 38  1  0
  2  3  1  0
  2  4  1  0
  2  5  1  1
  3 39  1  0
  3 40  1  0
  3 41  1  0
  4 42  1  0
  4 43  1  0
  4 44  1  0
  5  6  1  0
  6  7  2  0
  6  8  1  0
  8  9  1  0
  8 45  1  0
  9 10  2  0
  9 15  1  0
 10 11  1  0
 10 46  1  0
 11 12  1  0
 11 13  2  0
 13 14  1  0
 13 35  1  0
 14 15  2  0
 14 16  1  0
 15 47  1  0
 16 17  1  0
 16 27  1  0
 17 18  2  0
 17 19  2  0
 17 20  1  6
 20 21  2  0
 20 26  1  0
 21 22  1  0
 21 48  1  0
 22 23  2  0
 22 49  1  0
 23 24  1  0
 23 25  1  0
 25 26  2  0
 25 50  1  0
 26 51  1  0
 27 28  1  0
 27 52  1  0
 27 53  1  0
 28 29  1  0
 28 35  1  0
 28 54  1  1
 29 30  1  0
 29 55  1  0
 29 56  1  0
 31 30  1  6
 30 57  1  0
 31 32  1  0
 31 33  2  0
 31 34  2  0
 32 58  1  0
 32 59  1  0
 32 60  1  0
M  END

