
     RDKit          3D

 27 27  0  0  0  0  0  0  0  0999 V2000
    1.1049    0.0494   -0.2361 C   0  0  0  0  0  0  0  0  0  0  0  0
    2.5859    0.0625    0.1463 C   0  0  0  0  0  0  0  0  0  0  0  0
    3.0585    1.3697    0.8104 C   0  0  1  0  0  0  0  0  0  0  0  0
    2.3940    1.6204    2.1803 C   0  0  0  0  0  0  0  0  0  0  0  0
    4.5799    1.3514    1.0062 C   0  0  0  0  0  0  0  0  0  0  0  0
    5.1313    0.2695    1.2125 O   0  0  0  0  0  0  0  0  0  0  0  0
    5.3555    2.6138    0.9872 C   0  0  0  0  0  0  0  0  0  0  0  0
    4.7535    3.8693    0.7487 C   0  0  0  0  0  0  0  0  0  0  0  0
    5.3787    5.0382    0.7197 N   0  0  0  0  0  0  0  0  0  0  0  0
    6.7063    5.0119    0.9373 C   0  0  0  0  0  0  0  0  0  0  0  0
    7.4328    3.8616    1.1841 C   0  0  0  0  0  0  0  0  0  0  0  0
    6.7736    2.6062    1.2204 C   0  0  0  0  0  0  0  0  0  0  0  0
    7.4542    1.4686    1.4649 N   0  0  0  0  0  0  0  0  0  0  0  0
    0.8462   -0.8845   -0.7600 H   0  0  0  0  0  0  0  0  0  0  0  0
    0.8519    0.8859   -0.9098 H   0  0  0  0  0  0  0  0  0  0  0  0
    0.4444    0.1209    0.6426 H   0  0  0  0  0  0  0  0  0  0  0  0
    3.1942   -0.1069   -0.7585 H   0  0  0  0  0  0  0  0  0  0  0  0
    2.8183   -0.7796    0.8176 H   0  0  0  0  0  0  0  0  0  0  0  0
    2.7913    2.2042    0.1425 H   0  0  0  0  0  0  0  0  0  0  0  0
    2.6323    0.8002    2.8766 H   0  0  0  0  0  0  0  0  0  0  0  0
    1.2997    1.6814    2.0840 H   0  0  0  0  0  0  0  0  0  0  0  0
    2.7405    2.5612    2.6349 H   0  0  0  0  0  0  0  0  0  0  0  0
    3.6747    3.9128    0.5675 H   0  0  0  0  0  0  0  0  0  0  0  0
    7.2207    5.9803    0.9114 H   0  0  0  0  0  0  0  0  0  0  0  0
    8.5118    3.9134    1.3527 H   0  0  0  0  0  0  0  0  0  0  0  0
    8.4524    1.4961    1.6184 H   0  0  0  0  0  0  0  0  0  0  0  0
    6.9233    0.5980    1.4708 H   0  0  0  0  0  0  0  0  0  0  0  0
  1  2  1  0
  1 14  1  0
  1 15  1  0
  1 16  1  0
  2  3  1  0
  2 17  1  0
  2 18  1  0
  3  4  1  0
  3  5  1  0
  3 19  1  6
  4 20  1  0
  4 21  1  0
  4 22  1  0
  5  6  2  0
  5  7  1  0
  7  8  2  0
  7 12  1  0
  8  9  1  0
  8 23  1  0
  9 10  2  0
 10 11  1  0
 10 24  1  0
 11 12  2  0
 11 25  1  0
 12 13  1  0
 13 26  1  0
 13 27  1  0
M  END

