
     RDKit          3D

 57 57  0  0  0  0  0  0  0  0999 V2000
   -2.8384    0.5533   -2.4894 C   0  0  0  0  0  0  0  0  0  0  0  0
   -3.7887   -0.6337   -2.6362 C   0  0  0  0  0  0  0  0  0  0  0  0
   -3.1088   -1.8850   -3.2386 C   0  0  1  0  0  0  0  0  0  0  0  0
   -1.9721   -2.4272   -2.5170 N   0  0  0  0  0  0  0  0  0  0  0  0
   -2.1684   -2.8141   -1.1297 C   0  0  0  0  0  0  0  0  0  0  0  0
   -0.9687   -3.6050   -0.6091 C   0  0  0  0  0  0  0  0  0  0  0  0
   -1.1365   -4.1013    0.8320 C   0  0  0  0  0  0  0  0  0  0  0  0
   -2.2831   -4.9916    1.0027 N   0  0  0  0  0  0  0  0  0  0  0  0
   -2.1086   -6.3524    0.4986 C   0  0  0  0  0  0  0  0  0  0  0  0
   -1.3330   -7.2657    1.4600 C   0  0  0  0  0  0  0  0  0  0  0  0
   -1.9372   -7.2275    2.7884 N   0  0  0  0  0  0  0  0  0  0  0  0
   -2.1448   -8.4031    3.4643 C   0  0  0  0  0  0  0  0  0  0  0  0
   -1.9149   -9.5029    2.9945 O   0  0  0  0  0  0  0  0  0  0  0  0
   -2.6386   -8.1786    4.7029 O   0  0  0  0  0  0  0  0  0  0  0  0
   -2.9661   -9.2779    5.6133 C   0  0  1  0  0  0  0  0  0  0  0  0
   -1.7031  -10.0796    5.9466 C   0  0  0  0  0  0  0  0  0  0  0  0
   -3.4849   -8.5489    6.8550 C   0  0  0  0  0  0  0  0  0  0  0  0
   -4.0640  -10.1579    5.0058 C   0  0  0  0  0  0  0  0  0  0  0  0
   -2.1357   -5.8925    3.3439 C   0  0  0  0  0  0  0  0  0  0  0  0
   -2.8877   -5.0153    2.3287 C   0  0  0  0  0  0  0  0  0  0  0  0
   -4.1722   -2.9474   -3.5597 C   0  0  0  0  0  0  0  0  0  0  0  0
   -5.3168   -2.6836   -3.8433 O   0  0  0  0  0  0  0  0  0  0  0  0
   -3.6949   -4.2011   -3.5421 O   0  0  0  0  0  0  0  0  0  0  0  0
   -4.6246   -5.2279   -3.8855 C   0  0  0  0  0  0  0  0  0  0  0  0
   -3.3568    1.4275   -2.0655 H   0  0  0  0  0  0  0  0  0  0  0  0
   -2.4207    0.8576   -3.4645 H   0  0  0  0  0  0  0  0  0  0  0  0
   -1.9898    0.3221   -1.8243 H   0  0  0  0  0  0  0  0  0  0  0  0
   -4.6386   -0.3666   -3.2814 H   0  0  0  0  0  0  0  0  0  0  0  0
   -4.2260   -0.8935   -1.6569 H   0  0  0  0  0  0  0  0  0  0  0  0
   -2.7268   -1.5974   -4.2382 H   0  0  0  0  0  0  0  0  0  0  0  0
   -1.1618   -1.8216   -2.6213 H   0  0  0  0  0  0  0  0  0  0  0  0
   -3.0597   -3.4572   -1.0656 H   0  0  0  0  0  0  0  0  0  0  0  0
   -2.3588   -1.9558   -0.4461 H   0  0  0  0  0  0  0  0  0  0  0  0
   -0.0595   -2.9768   -0.6484 H   0  0  0  0  0  0  0  0  0  0  0  0
   -0.7831   -4.4452   -1.2986 H   0  0  0  0  0  0  0  0  0  0  0  0
   -1.2994   -3.2292    1.4878 H   0  0  0  0  0  0  0  0  0  0  0  0
   -0.1768   -4.5532    1.1651 H   0  0  0  0  0  0  0  0  0  0  0  0
   -1.6025   -6.3241   -0.4782 H   0  0  0  0  0  0  0  0  0  0  0  0
   -3.1088   -6.7910    0.3310 H   0  0  0  0  0  0  0  0  0  0  0  0
   -0.2748   -6.9439    1.5250 H   0  0  0  0  0  0  0  0  0  0  0  0
   -1.3403   -8.3064    1.1125 H   0  0  0  0  0  0  0  0  0  0  0  0
   -0.9219   -9.4135    6.3459 H   0  0  0  0  0  0  0  0  0  0  0  0
   -1.3138  -10.5879    5.0558 H   0  0  0  0  0  0  0  0  0  0  0  0
   -1.9336  -10.8338    6.7154 H   0  0  0  0  0  0  0  0  0  0  0  0
   -2.7112   -7.8815    7.2644 H   0  0  0  0  0  0  0  0  0  0  0  0
   -3.7667   -9.2741    7.6333 H   0  0  0  0  0  0  0  0  0  0  0  0
   -4.3695   -7.9422    6.6081 H   0  0  0  0  0  0  0  0  0  0  0  0
   -3.7039  -10.6699    4.1049 H   0  0  0  0  0  0  0  0  0  0  0  0
   -4.9412   -9.5466    4.7410 H   0  0  0  0  0  0  0  0  0  0  0  0
   -4.3843  -10.9129    5.7409 H   0  0  0  0  0  0  0  0  0  0  0  0
   -1.1530   -5.4384    3.5836 H   0  0  0  0  0  0  0  0  0  0  0  0
   -2.7004   -5.9713    4.2792 H   0  0  0  0  0  0  0  0  0  0  0  0
   -2.9675   -3.9856    2.7128 H   0  0  0  0  0  0  0  0  0  0  0  0
   -3.9160   -5.4099    2.2324 H   0  0  0  0  0  0  0  0  0  0  0  0
   -4.0733   -6.1741   -3.8191 H   0  0  0  0  0  0  0  0  0  0  0  0
   -5.0113   -5.0820   -4.9057 H   0  0  0  0  0  0  0  0  0  0  0  0
   -5.4785   -5.2335   -3.1910 H   0  0  0  0  0  0  0  0  0  0  0  0
  1  2  1  0
  1 25  1  0
  1 26  1  0
  1 27  1  0
  2  3  1  0
  2 28  1  0
  2 29  1  0
  3  4  1  0
  3 21  1  0
  3 30  1  6
  4  5  1  0
  4 31  1  0
  5  6  1  0
  5 32  1  0
  5 33  1  0
  6  7  1  0
  6 34  1  0
  6 35  1  0
  7  8  1  0
  7 36  1  0
  7 37  1  0
  8  9  1  0
  8 20  1  0
  9 10  1  0
  9 38  1  0
  9 39  1  0
 10 11  1  0
 10 40  1  0
 10 41  1  0
 11 12  1  0
 11 19  1  0
 12 13  2  0
 12 14  1  0
 15 14  1  6
 15 16  1  0
 15 17  1  0
 15 18  1  0
 16 42  1  0
 16 43  1  0
 16 44  1  0
 17 45  1  0
 17 46  1  0
 17 47  1  0
 18 48  1  0
 18 49  1  0
 18 50  1  0
 19 20  1  0
 19 51  1  0
 19 52  1  0
 20 53  1  0
 20 54  1  0
 21 22  2  0
 21 23  1  0
 23 24  1  0
 24 55  1  0
 24 56  1  0
 24 57  1  0
M  END

