
     RDKit          3D

 38 38  0  0  0  0  0  0  0  0999 V2000
    2.8344    3.1460    1.8905 C   0  0  0  0  0  0  0  0  0  0  0  0
    3.7423    2.1797    1.1561 C   0  0  0  0  0  0  0  0  0  0  0  0
    3.8090    0.9424    1.8932 O   0  0  0  0  0  0  0  0  0  0  0  0
    5.1929    0.0754    1.9299 P   0  0  1  0  0  0  0  0  0  0  0  0
    6.4452    0.8683    1.9083 O   0  0  0  0  0  0  0  0  0  0  0  0
    4.9346   -0.9194    3.4471 C   0  0  0  0  0  0  0  0  0  0  0  0
    3.5224   -1.3371    3.7434 C   0  0  0  0  0  0  0  0  0  0  0  0
    3.1526   -2.5487    3.6921 N   0  0  0  0  0  0  0  0  0  0  0  0
    1.7714   -2.8718    3.9998 C   0  0  0  0  0  0  0  0  0  0  0  0
    1.1205   -3.6999    2.9050 C   0  0  0  0  0  0  0  0  0  0  0  0
    1.8041   -4.7788    2.3205 C   0  0  0  0  0  0  0  0  0  0  0  0
    1.1924   -5.5575    1.3355 C   0  0  0  0  0  0  0  0  0  0  0  0
   -0.1126   -5.2713    0.9186 C   0  0  0  0  0  0  0  0  0  0  0  0
   -0.7991   -4.1984    1.4923 C   0  0  0  0  0  0  0  0  0  0  0  0
   -0.1833   -3.4168    2.4759 C   0  0  0  0  0  0  0  0  0  0  0  0
    5.1030   -0.9323    0.6681 O   0  0  0  0  0  0  0  0  0  0  0  0
    3.9496   -1.7056    0.2932 C   0  0  0  0  0  0  0  0  0  0  0  0
    4.1182   -2.1527   -1.1451 C   0  0  0  0  0  0  0  0  0  0  0  0
    2.7480    4.0873    1.3246 H   0  0  0  0  0  0  0  0  0  0  0  0
    3.2373    3.3778    2.8885 H   0  0  0  0  0  0  0  0  0  0  0  0
    1.8249    2.7233    2.0134 H   0  0  0  0  0  0  0  0  0  0  0  0
    4.7604    2.5872    1.0516 H   0  0  0  0  0  0  0  0  0  0  0  0
    3.3544    1.9626    0.1458 H   0  0  0  0  0  0  0  0  0  0  0  0
    5.3190   -0.2747    4.2555 H   0  0  0  0  0  0  0  0  0  0  0  0
    5.5847   -1.8038    3.3701 H   0  0  0  0  0  0  0  0  0  0  0  0
    2.8220   -0.5186    4.0060 H   0  0  0  0  0  0  0  0  0  0  0  0
    1.1575   -1.9708    4.2035 H   0  0  0  0  0  0  0  0  0  0  0  0
    1.7783   -3.4688    4.9319 H   0  0  0  0  0  0  0  0  0  0  0  0
    2.8248   -4.9968    2.6423 H   0  0  0  0  0  0  0  0  0  0  0  0
    1.7367   -6.3950    0.8907 H   0  0  0  0  0  0  0  0  0  0  0  0
   -0.5906   -5.8818    0.1482 H   0  0  0  0  0  0  0  0  0  0  0  0
   -1.8172   -3.9633    1.1708 H   0  0  0  0  0  0  0  0  0  0  0  0
   -0.7253   -2.5743    2.9156 H   0  0  0  0  0  0  0  0  0  0  0  0
    3.0403   -1.0925    0.4131 H   0  0  0  0  0  0  0  0  0  0  0  0
    3.8588   -2.5714    0.9688 H   0  0  0  0  0  0  0  0  0  0  0  0
    4.1899   -1.2861   -1.8203 H   0  0  0  0  0  0  0  0  0  0  0  0
    3.2567   -2.7672   -1.4511 H   0  0  0  0  0  0  0  0  0  0  0  0
    5.0333   -2.7536   -1.2605 H   0  0  0  0  0  0  0  0  0  0  0  0
  1  2  1  0
  1 19  1  0
  1 20  1  0
  1 21  1  0
  2  3  1  0
  2 22  1  0
  2 23  1  0
  4  3  1  6
  4  5  2  0
  4  6  1  0
  4 16  1  0
  6  7  1  0
  6 24  1  0
  6 25  1  0
  7  8  2  0
  7 26  1  0
  8  9  1  0
  9 10  1  0
  9 27  1  0
  9 28  1  0
 10 11  2  0
 10 15  1  0
 11 12  1  0
 11 29  1  0
 12 13  2  0
 12 30  1  0
 13 14  1  0
 13 31  1  0
 14 15  2  0
 14 32  1  0
 15 33  1  0
 16 17  1  0
 17 18  1  0
 17 34  1  0
 17 35  1  0
 18 36  1  0
 18 37  1  0
 18 38  1  0
M  END

