
     RDKit          3D

 32 34  0  0  0  0  0  0  0  0999 V2000
    1.0637   -0.2053   -0.3424 O   0  0  0  0  0  0  0  0  0  0  0  0
    2.2705   -0.2136   -0.1806 C   0  0  0  0  0  0  0  0  0  0  0  0
    3.1158   -1.3813   -0.5303 C   0  0  0  0  0  0  0  0  0  0  0  0
    2.5234   -2.6033   -0.9035 C   0  0  0  0  0  0  0  0  0  0  0  0
    3.3035   -3.7241   -1.1566 C   0  0  0  0  0  0  0  0  0  0  0  0
    4.7014   -3.6323   -1.0370 C   0  0  0  0  0  0  0  0  0  0  0  0
    5.3123   -2.4328   -0.6836 C   0  0  0  0  0  0  0  0  0  0  0  0
    4.5228   -1.2986   -0.4364 C   0  0  0  0  0  0  0  0  0  0  0  0
    5.1580   -0.1496   -0.1100 O   0  0  0  0  0  0  0  0  0  0  0  0
    4.4079    1.0546   -0.2375 C   0  0  0  0  0  0  0  0  0  0  0  0
    3.0333    0.9663    0.4301 C   0  0  1  0  0  0  0  0  0  0  0  0
    2.2625    2.3057    0.3616 C   0  0  0  0  0  0  0  0  0  0  0  0
    1.4341    2.6326    1.5894 C   0  0  0  0  0  0  0  0  0  0  0  0
    1.8773    3.5914    2.5132 C   0  0  0  0  0  0  0  0  0  0  0  0
    1.1356    3.9024    3.6561 C   0  0  0  0  0  0  0  0  0  0  0  0
   -0.0746    3.2438    3.8823 C   0  0  0  0  0  0  0  0  0  0  0  0
   -1.0163    3.6245    5.3086 Cl  0  0  0  0  0  0  0  0  0  0  0  0
   -0.5415    2.2855    2.9778 C   0  0  0  0  0  0  0  0  0  0  0  0
    0.2121    1.9857    1.8417 C   0  0  0  0  0  0  0  0  0  0  0  0
    1.4338   -2.6356   -0.9708 H   0  0  0  0  0  0  0  0  0  0  0  0
    2.8376   -4.6701   -1.4405 H   0  0  0  0  0  0  0  0  0  0  0  0
    5.3223   -4.5108   -1.2315 H   0  0  0  0  0  0  0  0  0  0  0  0
    6.3971   -2.3420   -0.6023 H   0  0  0  0  0  0  0  0  0  0  0  0
    4.2958    1.2980   -1.3128 H   0  0  0  0  0  0  0  0  0  0  0  0
    5.0214    1.8386    0.2277 H   0  0  0  0  0  0  0  0  0  0  0  0
    3.2069    0.6956    1.4893 H   0  0  0  0  0  0  0  0  0  0  0  0
    1.6131    2.2886   -0.5276 H   0  0  0  0  0  0  0  0  0  0  0  0
    2.9892    3.1203    0.2089 H   0  0  0  0  0  0  0  0  0  0  0  0
    2.8210    4.1166    2.3383 H   0  0  0  0  0  0  0  0  0  0  0  0
    1.4888    4.6520    4.3663 H   0  0  0  0  0  0  0  0  0  0  0  0
   -1.4908    1.7806    3.1652 H   0  0  0  0  0  0  0  0  0  0  0  0
   -0.1435    1.2327    1.1355 H   0  0  0  0  0  0  0  0  0  0  0  0
  1  2  2  0
  2  3  1  0
  2 11  1  0
  3  4  1  0
  3  8  2  0
  4  5  2  0
  4 20  1  0
  5  6  1  0
  5 21  1  0
  6  7  2  0
  6 22  1  0
  7  8  1  0
  7 23  1  0
  8  9  1  0
  9 10  1  0
 10 11  1  0
 10 24  1  0
 10 25  1  0
 11 12  1  0
 11 26  1  1
 12 13  1  0
 12 27  1  0
 12 28  1  0
 13 14  2  0
 13 19  1  0
 14 15  1  0
 14 29  1  0
 15 16  2  0
 15 30  1  0
 16 17  1  0
 16 18  1  0
 18 19  2  0
 18 31  1  0
 19 32  1  0
M  END

