
     RDKit          3D

 70 79  0  0  0  0  0  0  0  0999 V2000
   -0.9906    0.8162   -1.3956 C   0  0  0  0  0  0  0  0  0  0  0  0
    0.3853    1.0038   -1.5383 C   0  0  0  0  0  0  0  0  0  0  0  0
    1.2885    0.0621   -1.0115 C   0  0  0  0  0  0  0  0  0  0  0  0
    2.7619    0.2060   -1.1962 C   0  0  0  0  0  0  0  0  0  0  0  0
    3.4614   -0.8506   -1.8047 C   0  0  0  0  0  0  0  0  0  0  0  0
    4.8284   -0.7792   -2.0492 C   0  0  0  0  0  0  0  0  0  0  0  0
    5.5633    0.3644   -1.6929 C   0  0  0  0  0  0  0  0  0  0  0  0
    6.9736    0.4711   -1.9362 C   0  0  0  0  0  0  0  0  0  0  0  0
    7.6755    1.5873   -1.5876 C   0  0  0  0  0  0  0  0  0  0  0  0
    7.0350    2.7136   -0.9581 C   0  0  0  0  0  0  0  0  0  0  0  0
    7.7450    3.8883   -0.5844 C   0  0  0  0  0  0  0  0  0  0  0  0
    9.1861    4.0845   -0.8992 C   0  0  0  0  0  0  0  0  0  0  0  0
    9.6661    4.0291   -2.2488 C   0  0  0  0  0  0  0  0  0  0  0  0
   10.9100    4.2354   -2.6084 N   0  0  0  0  0  0  0  0  0  0  0  0
   11.8301    4.5252   -1.6462 C   0  0  0  0  0  0  0  0  0  0  0  0
   13.1833    4.7417   -2.0260 C   0  0  0  0  0  0  0  0  0  0  0  0
   14.1373    5.0394   -1.0751 C   0  0  0  0  0  0  0  0  0  0  0  0
   13.7826    5.1349    0.2957 C   0  0  0  0  0  0  0  0  0  0  0  0
   12.4781    4.9308    0.6950 C   0  0  0  0  0  0  0  0  0  0  0  0
   11.4716    4.6221   -0.2617 C   0  0  0  0  0  0  0  0  0  0  0  0
   10.1134    4.3943    0.0810 C   0  0  0  0  0  0  0  0  0  0  0  0
    7.0642    4.9088    0.1016 C   0  0  0  0  0  0  0  0  0  0  0  0
    5.7094    4.8122    0.3998 C   0  0  0  0  0  0  0  0  0  0  0  0
    4.9686    3.6812    0.0165 C   0  0  0  0  0  0  0  0  0  0  0  0
    3.5685    3.5525    0.3053 C   0  0  0  0  0  0  0  0  0  0  0  0
    2.8593    2.4522   -0.0770 C   0  0  0  0  0  0  0  0  0  0  0  0
    3.4803    1.3635   -0.7875 C   0  0  0  0  0  0  0  0  0  0  0  0
    4.8893    1.4498   -1.0517 C   0  0  0  0  0  0  0  0  0  0  0  0
    5.6320    2.6157   -0.6684 C   0  0  0  0  0  0  0  0  0  0  0  0
    0.7732   -1.0650   -0.3507 C   0  0  0  0  0  0  0  0  0  0  0  0
   -0.6100   -1.2654   -0.1931 C   0  0  0  0  0  0  0  0  0  0  0  0
   -1.1419   -2.4474    0.5333 C   0  0  0  0  0  0  0  0  0  0  0  0
   -2.2849   -2.3625    1.3516 C   0  0  0  0  0  0  0  0  0  0  0  0
   -2.8137   -3.4698    2.0331 C   0  0  0  0  0  0  0  0  0  0  0  0
   -2.2235   -4.7293    1.9285 C   0  0  0  0  0  0  0  0  0  0  0  0
   -1.0835   -4.8584    1.1246 C   0  0  0  0  0  0  0  0  0  0  0  0
   -0.5693   -3.7268    0.4548 C   0  0  0  0  0  0  0  0  0  0  0  0
    0.5358   -4.0551   -0.2903 O   0  0  0  0  0  0  0  0  0  0  0  0
    0.7502   -5.3959   -0.1122 C   0  0  0  0  0  0  0  0  0  0  0  0
    1.7764   -6.1332   -0.6947 C   0  0  0  0  0  0  0  0  0  0  0  0
    1.8246   -7.4961   -0.3874 C   0  0  0  0  0  0  0  0  0  0  0  0
    0.8779   -8.0867    0.4704 C   0  0  0  0  0  0  0  0  0  0  0  0
   -0.1443   -7.3292    1.0449 C   0  0  0  0  0  0  0  0  0  0  0  0
   -0.2115   -5.9597    0.7506 C   0  0  0  0  0  0  0  0  0  0  0  0
   -1.4875   -0.3049   -0.7295 C   0  0  0  0  0  0  0  0  0  0  0  0
   -1.6848    1.5437   -1.8240 H   0  0  0  0  0  0  0  0  0  0  0  0
    0.7643    1.8711   -2.0836 H   0  0  0  0  0  0  0  0  0  0  0  0
    2.9040   -1.7387   -2.1115 H   0  0  0  0  0  0  0  0  0  0  0  0
    5.3415   -1.6136   -2.5347 H   0  0  0  0  0  0  0  0  0  0  0  0
    7.4849   -0.3736   -2.4057 H   0  0  0  0  0  0  0  0  0  0  0  0
    8.7495    1.6244   -1.7718 H   0  0  0  0  0  0  0  0  0  0  0  0
    8.9494    3.8173   -3.0523 H   0  0  0  0  0  0  0  0  0  0  0  0
   13.4283    4.6632   -3.0871 H   0  0  0  0  0  0  0  0  0  0  0  0
   15.1754    5.2042   -1.3748 H   0  0  0  0  0  0  0  0  0  0  0  0
   14.5508    5.3713    1.0364 H   0  0  0  0  0  0  0  0  0  0  0  0
   12.2013    5.0026    1.7507 H   0  0  0  0  0  0  0  0  0  0  0  0
    9.8089    4.4508    1.1302 H   0  0  0  0  0  0  0  0  0  0  0  0
    7.6140    5.8105    0.3821 H   0  0  0  0  0  0  0  0  0  0  0  0
    5.2061    5.6272    0.9265 H   0  0  0  0  0  0  0  0  0  0  0  0
    3.0753    4.3603    0.8528 H   0  0  0  0  0  0  0  0  0  0  0  0
    1.8007    2.3800    0.1733 H   0  0  0  0  0  0  0  0  0  0  0  0
    1.4691   -1.7931    0.0665 H   0  0  0  0  0  0  0  0  0  0  0  0
   -2.7634   -1.3888    1.4758 H   0  0  0  0  0  0  0  0  0  0  0  0
   -3.6987   -3.3351    2.6594 H   0  0  0  0  0  0  0  0  0  0  0  0
   -2.6375   -5.5898    2.4589 H   0  0  0  0  0  0  0  0  0  0  0  0
    2.5032   -5.6622   -1.3585 H   0  0  0  0  0  0  0  0  0  0  0  0
    2.6136   -8.1140   -0.8230 H   0  0  0  0  0  0  0  0  0  0  0  0
    0.9463   -9.1551    0.6884 H   0  0  0  0  0  0  0  0  0  0  0  0
   -0.8755   -7.7949    1.7099 H   0  0  0  0  0  0  0  0  0  0  0  0
   -2.5667   -0.4507   -0.6474 H   0  0  0  0  0  0  0  0  0  0  0  0
  1  2  2  0
  1 45  1  0
  1 46  1  0
  2  3  1  0
  2 47  1  0
  3  4  1  0
  3 30  2  0
  4  5  2  0
  4 27  1  0
  5  6  1  0
  5 48  1  0
  6  7  2  0
  6 49  1  0
  7  8  1  0
  7 28  1  0
  8  9  2  0
  8 50  1  0
  9 10  1  0
  9 51  1  0
 10 11  2  0
 10 29  1  0
 11 12  1  0
 11 22  1  0
 12 13  2  0
 12 21  1  0
 13 14  1  0
 13 52  1  0
 14 15  2  0
 15 16  1  0
 15 20  1  0
 16 17  2  0
 16 53  1  0
 17 18  1  0
 17 54  1  0
 18 19  2  0
 18 55  1  0
 19 20  1  0
 19 56  1  0
 20 21  2  0
 21 57  1  0
 22 23  2  0
 22 58  1  0
 23 24  1  0
 23 59  1  0
 24 25  2  0
 24 29  1  0
 25 26  1  0
 25 60  1  0
 26 27  2  0
 26 61  1  0
 27 28  1  0
 28 29  2  0
 30 31  1  0
 30 62  1  0
 31 32  1  0
 31 45  2  0
 32 33  2  0
 32 37  1  0
 33 34  1  0
 33 63  1  0
 34 35  2  0
 34 64  1  0
 35 36  1  0
 35 65  1  0
 36 37  2  0
 36 44  1  0
 37 38  1  0
 38 39  1  0
 39 40  1  0
 39 44  2  0
 40 41  2  0
 40 66  1  0
 41 42  1  0
 41 67  1  0
 42 43  2  0
 42 68  1  0
 43 44  1  0
 43 69  1  0
 45 70  1  0
M  END

