
     RDKit          3D

 49 52  0  0  0  0  0  0  0  0999 V2000
    1.1127   -1.2020   -0.5384 O   0  0  0  0  0  0  0  0  0  0  0  0
    2.1439   -0.5906   -0.4496 C   0  0  0  0  0  0  0  0  0  0  0  0
    2.3054    1.1900   -0.7442 S   0  0  0  0  0  0  0  0  0  0  0  0
    4.0385    1.1338   -0.3979 C   0  0  0  0  0  0  0  0  0  0  0  0
    4.9405    2.1496   -0.4101 C   0  0  0  0  0  0  0  0  0  0  0  0
    4.7649    3.5381   -0.7001 C   0  0  0  0  0  0  0  0  0  0  0  0
    3.2436    4.3121   -1.1442 S   0  0  0  0  0  0  0  0  0  0  0  0
    4.0867    5.8475   -1.2555 C   0  0  0  0  0  0  0  0  0  0  0  0
    3.2105    7.3023   -1.6781 S   0  0  0  0  0  0  0  0  0  0  0  0
    4.5848    8.5230   -1.6662 C   0  0  0  0  0  0  0  0  0  0  0  0
    5.4681    8.4941   -2.9221 C   0  0  0  0  0  0  0  0  0  0  0  0
    6.6433    9.4406   -2.7896 C   0  0  0  0  0  0  0  0  0  0  0  0
    7.7912    9.0451   -2.0815 C   0  0  0  0  0  0  0  0  0  0  0  0
    8.8696    9.9190   -1.9247 C   0  0  0  0  0  0  0  0  0  0  0  0
    8.8181   11.2050   -2.4729 C   0  0  0  0  0  0  0  0  0  0  0  0
    7.6817   11.6099   -3.1787 C   0  0  0  0  0  0  0  0  0  0  0  0
    6.6032   10.7335   -3.3334 C   0  0  0  0  0  0  0  0  0  0  0  0
    5.3679    5.7863   -0.9917 N   0  0  0  0  0  0  0  0  0  0  0  0
    5.7454    4.5271   -0.6878 C   0  0  0  0  0  0  0  0  0  0  0  0
    7.4064    4.2248   -0.3111 Cl  0  0  0  0  0  0  0  0  0  0  0  0
    4.4710   -0.2474   -0.0592 C   0  0  0  0  0  0  0  0  0  0  0  0
    5.5962   -0.6008    0.2278 O   0  0  0  0  0  0  0  0  0  0  0  0
    3.3809   -1.1222   -0.1186 N   0  0  0  0  0  0  0  0  0  0  0  0
    3.5300   -2.5510    0.1784 C   0  0  0  0  0  0  0  0  0  0  0  0
    3.3079   -2.8821    1.6420 C   0  0  0  0  0  0  0  0  0  0  0  0
    2.0268   -3.2230    2.1064 C   0  0  0  0  0  0  0  0  0  0  0  0
    1.8144   -3.5185    3.4527 C   0  0  0  0  0  0  0  0  0  0  0  0
    2.8992   -3.4663    4.3283 C   0  0  0  0  0  0  0  0  0  0  0  0
    2.6826   -3.7821    5.7576 N   0  0  0  0  0  0  0  0  0  0  0  0
    1.5505   -4.0773    6.1043 O   0  0  0  0  0  0  0  0  0  0  0  0
    3.6496   -3.7272    6.4997 O   0  0  0  0  0  0  0  0  0  0  0  0
    4.1820   -3.1257    3.8981 C   0  0  0  0  0  0  0  0  0  0  0  0
    4.3796   -2.8329    2.5491 C   0  0  0  0  0  0  0  0  0  0  0  0
    5.9640    1.8544   -0.1560 H   0  0  0  0  0  0  0  0  0  0  0  0
    5.1751    8.3360   -0.7590 H   0  0  0  0  0  0  0  0  0  0  0  0
    4.0765    9.4926   -1.5517 H   0  0  0  0  0  0  0  0  0  0  0  0
    4.8601    8.7550   -3.8025 H   0  0  0  0  0  0  0  0  0  0  0  0
    5.8364    7.4681   -3.0689 H   0  0  0  0  0  0  0  0  0  0  0  0
    7.8362    8.0389   -1.6537 H   0  0  0  0  0  0  0  0  0  0  0  0
    9.7569    9.5934   -1.3753 H   0  0  0  0  0  0  0  0  0  0  0  0
    9.6630   11.8879   -2.3531 H   0  0  0  0  0  0  0  0  0  0  0  0
    7.6350   12.6113   -3.6144 H   0  0  0  0  0  0  0  0  0  0  0  0
    5.7197   11.0559   -3.8928 H   0  0  0  0  0  0  0  0  0  0  0  0
    4.5491   -2.8242   -0.1255 H   0  0  0  0  0  0  0  0  0  0  0  0
    2.8079   -3.0870   -0.4514 H   0  0  0  0  0  0  0  0  0  0  0  0
    1.1888   -3.2467    1.4060 H   0  0  0  0  0  0  0  0  0  0  0  0
    0.8305   -3.7880    3.8354 H   0  0  0  0  0  0  0  0  0  0  0  0
    4.9979   -3.0970    4.6197 H   0  0  0  0  0  0  0  0  0  0  0  0
    5.3731   -2.5529    2.1917 H   0  0  0  0  0  0  0  0  0  0  0  0
  1  2  2  0
  2  3  1  0
  2 23  1  0
  3  4  2  0
  4  5  1  0
  4 21  1  0
  5  6  2  0
  5 34  1  0
  6  7  1  0
  6 19  1  0
  7  8  2  0
  8  9  1  0
  8 18  1  0
  9 10  1  0
 10 11  1  0
 10 35  1  0
 10 36  1  0
 11 12  1  0
 11 37  1  0
 11 38  1  0
 12 13  2  0
 12 17  1  0
 13 14  1  0
 13 39  1  0
 14 15  2  0
 14 40  1  0
 15 16  1  0
 15 41  1  0
 16 17  2  0
 16 42  1  0
 17 43  1  0
 18 19  2  0
 19 20  1  0
 21 22  2  0
 21 23  1  0
 23 24  1  0
 24 25  1  0
 24 44  1  0
 24 45  1  0
 25 26  2  0
 25 33  1  0
 26 27  1  0
 26 46  1  0
 27 28  2  0
 27 47  1  0
 28 29  1  0
 28 32  1  0
 29 30  1  0
 29 31  1  0
 32 33  2  0
 32 48  1  0
 33 49  1  0
M  CHG  4   3   1   7   1  30  -1  31  -1
M  END

