
     RDKit          3D

 38 40  0  0  0  0  0  0  0  0999 V2000
    1.4169    1.9793   -3.3813 C   0  0  0  0  0  0  0  0  0  0  0  0
    2.7236    1.5760   -2.6982 C   0  0  0  0  0  0  0  0  0  0  0  0
    2.7526    1.9640   -1.2146 C   0  0  0  0  0  0  0  0  0  0  0  0
    3.9782    1.5868   -0.5231 N   0  0  0  0  0  0  0  0  0  0  0  0
    5.0891    2.3600   -0.5300 C   0  0  0  0  0  0  0  0  0  0  0  0
    5.1509    3.5432   -1.0807 N   0  0  0  0  0  0  0  0  0  0  0  0
    6.3825    4.1148   -0.9027 C   0  0  0  0  0  0  0  0  0  0  0  0
    6.5915    5.3589   -1.3750 N   0  0  0  0  0  0  0  0  0  0  0  0
    7.3527    3.3367   -0.2377 C   0  0  0  0  0  0  0  0  0  0  0  0
    8.6625    3.8588    0.1165 C   0  0  0  0  0  0  0  0  0  0  0  0
    8.9138    5.0589   -0.0675 O   0  0  0  0  0  0  0  0  0  0  0  0
    9.6405    3.0397    0.6925 N   0  0  0  0  0  0  0  0  0  0  0  0
    9.7949    1.6147    0.4493 C   0  0  0  0  0  0  0  0  0  0  0  0
   10.8247    1.3487   -0.6594 C   0  0  0  0  0  0  0  0  0  0  0  0
   12.0248    2.1216   -0.3787 N   0  0  0  0  0  0  0  0  0  0  0  0
   13.3058    2.0033   -0.8533 C   0  0  0  0  0  0  0  0  0  0  0  0
   14.0650    2.9463   -0.3562 N   0  0  0  0  0  0  0  0  0  0  0  0
   13.2818    3.7221    0.4630 N   0  0  0  0  0  0  0  0  0  0  0  0
   12.0693    3.2246    0.4345 C   0  0  0  0  0  0  0  0  0  0  0  0
   10.8565    3.6827    1.1917 C   0  0  0  0  0  0  0  0  0  0  0  0
    6.5663    1.8143    0.2625 S   0  0  0  0  0  0  0  0  0  0  0  0
    1.4181    1.6946   -4.4448 H   0  0  0  0  0  0  0  0  0  0  0  0
    1.2573    3.0691   -3.3297 H   0  0  0  0  0  0  0  0  0  0  0  0
    0.5456    1.4944   -2.9092 H   0  0  0  0  0  0  0  0  0  0  0  0
    3.5786    2.0590   -3.1997 H   0  0  0  0  0  0  0  0  0  0  0  0
    2.8779    0.4859   -2.7904 H   0  0  0  0  0  0  0  0  0  0  0  0
    1.9092    1.4948   -0.6806 H   0  0  0  0  0  0  0  0  0  0  0  0
    2.6394    3.0537   -1.1132 H   0  0  0  0  0  0  0  0  0  0  0  0
    4.0592    0.6459   -0.1597 H   0  0  0  0  0  0  0  0  0  0  0  0
    5.8025    5.8705   -1.7448 H   0  0  0  0  0  0  0  0  0  0  0  0
    7.4570    5.8100   -1.0821 H   0  0  0  0  0  0  0  0  0  0  0  0
    8.8472    1.1499    0.1582 H   0  0  0  0  0  0  0  0  0  0  0  0
   10.1244    1.1238    1.3829 H   0  0  0  0  0  0  0  0  0  0  0  0
   10.4076    1.6436   -1.6376 H   0  0  0  0  0  0  0  0  0  0  0  0
   11.0769    0.2771   -0.7035 H   0  0  0  0  0  0  0  0  0  0  0  0
   13.6212    1.2241   -1.5463 H   0  0  0  0  0  0  0  0  0  0  0  0
   10.7413    4.7680    1.0890 H   0  0  0  0  0  0  0  0  0  0  0  0
   10.9862    3.4491    2.2657 H   0  0  0  0  0  0  0  0  0  0  0  0
  1  2  1  0
  1 22  1  0
  1 23  1  0
  1 24  1  0
  2  3  1  0
  2 25  1  0
  2 26  1  0
  3  4  1  0
  3 27  1  0
  3 28  1  0
  4  5  1  0
  4 29  1  0
  5  6  2  0
  5 21  1  0
  6  7  1  0
  7  8  1  0
  7  9  2  0
  8 30  1  0
  8 31  1  0
  9 10  1  0
  9 21  1  0
 10 11  2  0
 10 12  1  0
 12 13  1  0
 12 20  1  0
 13 14  1  0
 13 32  1  0
 13 33  1  0
 14 15  1  0
 14 34  1  0
 14 35  1  0
 15 16  1  0
 15 19  1  0
 16 17  2  0
 16 36  1  0
 17 18  1  0
 18 19  2  0
 19 20  1  0
 20 37  1  0
 20 38  1  0
M  END

