
     RDKit          3D

 43 44  0  0  0  0  0  0  0  0999 V2000
    1.0960    0.7471    0.1362 C   0  0  0  0  0  0  0  0  0  0  0  0
    2.5439    0.2606    0.0783 C   0  0  0  0  0  0  0  0  0  0  0  0
    3.0348   -0.3350    1.3974 C   0  0  0  0  0  0  0  0  0  0  0  0
    4.4058   -0.8104    1.2902 N   0  0  0  0  0  0  0  0  0  0  0  0
    4.9598   -1.4182    2.4989 C   0  0  1  0  0  0  0  0  0  0  0  0
    4.3168   -2.7698    2.7093 C   0  0  0  0  0  0  0  0  0  0  0  0
    4.0394   -3.7706    1.7877 C   0  0  0  0  0  0  0  0  0  0  0  0
    3.4587   -4.8219    2.5420 C   0  0  0  0  0  0  0  0  0  0  0  0
    2.9632   -6.1544    2.0665 C   0  0  0  0  0  0  0  0  0  0  0  0
    3.3842   -4.4880    3.8298 N   0  0  0  0  0  0  0  0  0  0  0  0
    3.9063   -3.2492    3.9223 N   0  0  0  0  0  0  0  0  0  0  0  0
    3.9237   -2.5861    5.2142 C   0  0  0  0  0  0  0  0  0  0  0  0
    6.5092   -1.5221    2.3528 C   0  0  1  0  0  0  0  0  0  0  0  0
    7.2213   -0.1483    2.3243 C   0  0  0  0  0  0  0  0  0  0  0  0
    7.2978    0.4900    3.7194 C   0  0  0  0  0  0  0  0  0  0  0  0
    7.8596   -0.5061    4.7337 C   0  0  0  0  0  0  0  0  0  0  0  0
    7.1429   -1.7270    4.7187 O   0  0  0  0  0  0  0  0  0  0  0  0
    7.1739   -2.3648    3.4515 C   0  0  0  0  0  0  0  0  0  0  0  0
    0.7756    1.1703   -0.8289 H   0  0  0  0  0  0  0  0  0  0  0  0
    0.9619    1.5293    0.9023 H   0  0  0  0  0  0  0  0  0  0  0  0
    0.4062   -0.0772    0.3826 H   0  0  0  0  0  0  0  0  0  0  0  0
    3.2039    1.1018   -0.2071 H   0  0  0  0  0  0  0  0  0  0  0  0
    2.6628   -0.5005   -0.7113 H   0  0  0  0  0  0  0  0  0  0  0  0
    2.3934   -1.1906    1.6702 H   0  0  0  0  0  0  0  0  0  0  0  0
    2.9055    0.4164    2.2124 H   0  0  0  0  0  0  0  0  0  0  0  0
    5.0047   -0.0495    0.9784 H   0  0  0  0  0  0  0  0  0  0  0  0
    4.7430   -0.8014    3.3973 H   0  0  0  0  0  0  0  0  0  0  0  0
    4.2227   -3.7247    0.7169 H   0  0  0  0  0  0  0  0  0  0  0  0
    2.1616   -6.0450    1.3170 H   0  0  0  0  0  0  0  0  0  0  0  0
    2.5661   -6.7277    2.9160 H   0  0  0  0  0  0  0  0  0  0  0  0
    3.7685   -6.7439    1.5971 H   0  0  0  0  0  0  0  0  0  0  0  0
    3.6492   -3.3408    5.9608 H   0  0  0  0  0  0  0  0  0  0  0  0
    3.1878   -1.7652    5.2530 H   0  0  0  0  0  0  0  0  0  0  0  0
    4.9247   -2.1907    5.4375 H   0  0  0  0  0  0  0  0  0  0  0  0
    6.6848   -2.0358    1.3918 H   0  0  0  0  0  0  0  0  0  0  0  0
    6.7497    0.5477    1.6113 H   0  0  0  0  0  0  0  0  0  0  0  0
    8.2473   -0.3062    1.9463 H   0  0  0  0  0  0  0  0  0  0  0  0
    6.2961    0.8137    4.0497 H   0  0  0  0  0  0  0  0  0  0  0  0
    7.9297    1.3941    3.6971 H   0  0  0  0  0  0  0  0  0  0  0  0
    7.7967   -0.1150    5.7608 H   0  0  0  0  0  0  0  0  0  0  0  0
    8.9313   -0.7009    4.5140 H   0  0  0  0  0  0  0  0  0  0  0  0
    6.6763   -3.3363    3.5747 H   0  0  0  0  0  0  0  0  0  0  0  0
    8.2267   -2.5625    3.1614 H   0  0  0  0  0  0  0  0  0  0  0  0
  1  2  1  0
  1 19  1  0
  1 20  1  0
  1 21  1  0
  2  3  1  0
  2 22  1  0
  2 23  1  0
  3  4  1  0
  3 24  1  0
  3 25  1  0
  4  5  1  0
  4 26  1  0
  5  6  1  0
  5 13  1  0
  5 27  1  1
  6  7  2  0
  6 11  1  0
  7  8  1  0
  7 28  1  0
  8  9  1  0
  8 10  2  0
  9 29  1  0
  9 30  1  0
  9 31  1  0
 10 11  1  0
 11 12  1  0
 12 32  1  0
 12 33  1  0
 12 34  1  0
 13 14  1  0
 13 18  1  0
 13 35  1  6
 14 15  1  0
 14 36  1  0
 14 37  1  0
 15 16  1  0
 15 38  1  0
 15 39  1  0
 16 17  1  0
 16 40  1  0
 16 41  1  0
 17 18  1  0
 18 42  1  0
 18 43  1  0
M  END

