
     RDKit          3D

 91 94  0  0  0  0  0  0  0  0999 V2000
   11.2510   -5.8700   14.9932 C   0  0  0  0  0  0  0  0  0  0  0  0
   11.2945   -7.1362   14.1361 C   0  0  0  0  0  0  0  0  0  0  0  0
   11.4311   -6.8474   12.6365 C   0  0  0  0  0  0  0  0  0  0  0  0
   11.5540   -8.0879   11.7395 C   0  0  0  0  0  0  0  0  0  0  0  0
   10.2981   -8.9683   11.7163 C   0  0  0  0  0  0  0  0  0  0  0  0
   10.2933  -10.1178   10.6860 C   0  0  1  0  0  0  0  0  0  0  0  0
   11.4571  -11.0892   10.8971 C   0  0  0  0  0  0  0  0  0  0  0  0
    8.9607  -10.8750   10.7194 C   0  0  0  0  0  0  0  0  0  0  0  0
   10.5387   -9.6043    9.3304 O   0  0  0  0  0  0  0  0  0  0  0  0
    9.7121   -8.7430    8.7135 C   0  0  0  0  0  0  0  0  0  0  0  0
    8.7147   -8.2647    9.2018 O   0  0  0  0  0  0  0  0  0  0  0  0
   10.2000   -8.4673    7.2994 C   0  0  0  0  0  0  0  0  0  0  0  0
    9.4654   -7.3023    6.6385 C   0  0  0  0  0  0  0  0  0  0  0  0
    9.7774   -6.9942    5.1521 C   0  0  1  0  0  0  0  0  0  0  0  0
    8.7289   -5.9718    4.6860 C   0  0  0  0  0  0  0  0  0  0  0  0
   11.3143   -6.6891    4.9719 C   0  0  1  0  0  0  0  0  0  0  0  0
   12.0338   -8.0142    4.6012 C   0  0  0  0  0  0  0  0  0  0  0  0
   11.9933   -8.0616    3.0600 C   0  0  0  0  0  0  0  0  0  0  0  0
   11.9596   -6.5882    2.5611 C   0  0  1  0  0  0  0  0  0  0  0  0
   10.8516   -6.3387    1.5037 C   0  0  2  0  0  0  0  0  0  0  0  0
   11.2522   -7.0539    0.1994 C   0  0  0  0  0  0  0  0  0  0  0  0
   10.2927   -6.8263   -0.9803 C   0  0  0  0  0  0  0  0  0  0  0  0
    9.5318   -5.4860   -0.9239 C   0  0  2  0  0  0  0  0  0  0  0  0
    9.0230   -5.0803   -2.3178 C   0  0  0  0  0  0  0  0  0  0  0  0
    8.1812   -3.7976   -2.3068 C   0  0  1  0  0  0  0  0  0  0  0  0
    7.9604   -3.5031   -3.3460 H   0  0  0  0  0  0  0  0  0  0  0  0
    6.9016   -4.0053   -1.7203 O   0  0  0  0  0  0  0  0  0  0  0  0
    8.9518   -2.6655   -1.6139 C   0  0  0  0  0  0  0  0  0  0  0  0
    9.4357   -3.0759   -0.2166 C   0  0  0  0  0  0  0  0  0  0  0  0
   10.3188   -4.3574   -0.1893 C   0  0  2  0  0  0  0  0  0  0  0  0
   11.6687   -4.0409   -0.8701 C   0  0  0  0  0  0  0  0  0  0  0  0
   10.4867   -4.8175    1.3011 C   0  0  2  0  0  0  0  0  0  0  0  0
   11.3642   -3.9047    2.1732 C   0  0  0  0  0  0  0  0  0  0  0  0
   11.2647   -4.3323    3.6430 C   0  0  0  0  0  0  0  0  0  0  0  0
   11.9105   -5.7247    3.8706 C   0  0  1  0  0  0  0  0  0  0  0  0
   13.3809   -5.4282    4.2766 C   0  0  0  0  0  0  0  0  0  0  0  0
   11.1534   -6.1078   16.0646 H   0  0  0  0  0  0  0  0  0  0  0  0
   10.3975   -5.2286   14.7161 H   0  0  0  0  0  0  0  0  0  0  0  0
   12.1673   -5.2687   14.8677 H   0  0  0  0  0  0  0  0  0  0  0  0
   10.3823   -7.7298   14.3227 H   0  0  0  0  0  0  0  0  0  0  0  0
   12.1395   -7.7722   14.4599 H   0  0  0  0  0  0  0  0  0  0  0  0
   12.3215   -6.2117   12.4805 H   0  0  0  0  0  0  0  0  0  0  0  0
   10.5681   -6.2414   12.3028 H   0  0  0  0  0  0  0  0  0  0  0  0
   12.4294   -8.6781   12.0637 H   0  0  0  0  0  0  0  0  0  0  0  0
   11.7777   -7.7576   10.7113 H   0  0  0  0  0  0  0  0  0  0  0  0
    9.4172   -8.3372   11.5258 H   0  0  0  0  0  0  0  0  0  0  0  0
   10.1438   -9.4340   12.7045 H   0  0  0  0  0  0  0  0  0  0  0  0
   11.4165  -11.5192   11.9097 H   0  0  0  0  0  0  0  0  0  0  0  0
   12.4252  -10.5849   10.7695 H   0  0  0  0  0  0  0  0  0  0  0  0
   11.4053  -11.9111   10.1672 H   0  0  0  0  0  0  0  0  0  0  0  0
    8.8433  -11.3742   11.6938 H   0  0  0  0  0  0  0  0  0  0  0  0
    8.9411  -11.6497    9.9368 H   0  0  0  0  0  0  0  0  0  0  0  0
    8.1113  -10.1972   10.5674 H   0  0  0  0  0  0  0  0  0  0  0  0
   10.0552   -9.4045    6.7321 H   0  0  0  0  0  0  0  0  0  0  0  0
   11.2896   -8.3200    7.3463 H   0  0  0  0  0  0  0  0  0  0  0  0
    9.6504   -6.3867    7.2289 H   0  0  0  0  0  0  0  0  0  0  0  0
    8.3854   -7.4943    6.7390 H   0  0  0  0  0  0  0  0  0  0  0  0
    9.5646   -7.9133    4.5751 H   0  0  0  0  0  0  0  0  0  0  0  0
    8.7961   -5.0197    5.2364 H   0  0  0  0  0  0  0  0  0  0  0  0
    7.7227   -6.3795    4.8759 H   0  0  0  0  0  0  0  0  0  0  0  0
    8.7897   -5.7550    3.6119 H   0  0  0  0  0  0  0  0  0  0  0  0
   11.6682   -6.3142    5.9477 H   0  0  0  0  0  0  0  0  0  0  0  0
   11.5576   -8.8996    5.0426 H   0  0  0  0  0  0  0  0  0  0  0  0
   13.0712   -8.0119    4.9665 H   0  0  0  0  0  0  0  0  0  0  0  0
   11.0787   -8.5831    2.7306 H   0  0  0  0  0  0  0  0  0  0  0  0
   12.8376   -8.6338    2.6458 H   0  0  0  0  0  0  0  0  0  0  0  0
   12.9113   -6.3560    2.0546 H   0  0  0  0  0  0  0  0  0  0  0  0
    9.9343   -6.8342    1.8693 H   0  0  0  0  0  0  0  0  0  0  0  0
   11.3497   -8.1340    0.3934 H   0  0  0  0  0  0  0  0  0  0  0  0
   12.2657   -6.7206   -0.0773 H   0  0  0  0  0  0  0  0  0  0  0  0
   10.8641   -6.8867   -1.9226 H   0  0  0  0  0  0  0  0  0  0  0  0
    9.5506   -7.6409   -1.0339 H   0  0  0  0  0  0  0  0  0  0  0  0
    8.6357   -5.6578   -0.2947 H   0  0  0  0  0  0  0  0  0  0  0  0
    8.4184   -5.8995   -2.7422 H   0  0  0  0  0  0  0  0  0  0  0  0
    9.8810   -4.9405   -2.9984 H   0  0  0  0  0  0  0  0  0  0  0  0
    7.0256   -4.2818   -0.8035 H   0  0  0  0  0  0  0  0  0  0  0  0
    8.2980   -1.7811   -1.5414 H   0  0  0  0  0  0  0  0  0  0  0  0
    9.8078   -2.3741   -2.2458 H   0  0  0  0  0  0  0  0  0  0  0  0
    8.5511   -3.2486    0.4245 H   0  0  0  0  0  0  0  0  0  0  0  0
    9.9743   -2.2339    0.2470 H   0  0  0  0  0  0  0  0  0  0  0  0
   11.5462   -3.8233   -1.9416 H   0  0  0  0  0  0  0  0  0  0  0  0
   12.3904   -4.8645   -0.7895 H   0  0  0  0  0  0  0  0  0  0  0  0
   12.1352   -3.1531   -0.4158 H   0  0  0  0  0  0  0  0  0  0  0  0
    9.4701   -4.7095    1.7185 H   0  0  0  0  0  0  0  0  0  0  0  0
   11.0334   -2.8586    2.0742 H   0  0  0  0  0  0  0  0  0  0  0  0
   12.4154   -3.9266    1.8397 H   0  0  0  0  0  0  0  0  0  0  0  0
   10.2104   -4.3106    3.9300 H   0  0  0  0  0  0  0  0  0  0  0  0
   11.7632   -3.5895    4.2876 H   0  0  0  0  0  0  0  0  0  0  0  0
   13.4244   -4.9578    5.2726 H   0  0  0  0  0  0  0  0  0  0  0  0
   13.8364   -4.7271    3.5588 H   0  0  0  0  0  0  0  0  0  0  0  0
   14.0185   -6.3231    4.2964 H   0  0  0  0  0  0  0  0  0  0  0  0
  1  2  1  0
  1 37  1  0
  1 38  1  0
  1 39  1  0
  2  3  1  0
  2 40  1  0
  2 41  1  0
  3  4  1  0
  3 42  1  0
  3 43  1  0
  4  5  1  0
  4 44  1  0
  4 45  1  0
  5  6  1  0
  5 46  1  0
  5 47  1  0
  6  7  1  0
  6  8  1  0
  6  9  1  6
  7 48  1  0
  7 49  1  0
  7 50  1  0
  8 51  1  0
  8 52  1  0
  8 53  1  0
  9 10  1  0
 10 11  2  0
 10 12  1  0
 12 13  1  0
 12 54  1  0
 12 55  1  0
 13 14  1  0
 13 56  1  0
 13 57  1  0
 14 15  1  0
 14 16  1  0
 14 58  1  6
 15 59  1  0
 15 60  1  0
 15 61  1  0
 16 17  1  0
 16 35  1  0
 16 62  1  1
 17 18  1  0
 17 63  1  0
 17 64  1  0
 18 19  1  0
 18 65  1  0
 18 66  1  0
 19 20  1  0
 19 35  1  0
 19 67  1  6
 20 21  1  0
 20 32  1  0
 20 68  1  1
 21 22  1  0
 21 69  1  0
 21 70  1  0
 22 23  1  0
 22 71  1  0
 22 72  1  0
 23 24  1  0
 23 30  1  0
 23 73  1  1
 24 25  1  0
 24 74  1  0
 24 75  1  0
 25 26  1  6
 25 27  1  0
 25 28  1  0
 27 76  1  0
 28 29  1  0
 28 77  1  0
 28 78  1  0
 29 30  1  0
 29 79  1  0
 29 80  1  0
 30 31  1  6
 30 32  1  0
 31 81  1  0
 31 82  1  0
 31 83  1  0
 32 33  1  0
 32 84  1  1
 33 34  1  0
 33 85  1  0
 33 86  1  0
 34 35  1  0
 34 87  1  0
 34 88  1  0
 35 36  1  1
 36 89  1  0
 36 90  1  0
 36 91  1  0
M  END

