
     RDKit          3D

 36 39  0  0  0  0  0  0  0  0999 V2000
    1.0525    0.5651   -0.0173 C   0  0  0  0  0  0  0  0  0  0  0  0
    2.2589    0.4184   -0.0074 C   0  0  0  0  0  0  0  0  0  0  0  0
    3.6626    0.2375    0.0027 C   0  0  0  0  0  0  0  0  0  0  0  0
    4.6498    1.2169    0.0070 C   0  0  0  0  0  0  0  0  0  0  0  0
    5.9553    0.6787    0.0174 C   0  0  0  0  0  0  0  0  0  0  0  0
    5.9679   -0.7055    0.0210 C   0  0  0  0  0  0  0  0  0  0  0  0
    7.1277   -1.5918    0.0313 C   0  0  0  0  0  0  0  0  0  0  0  0
    8.3462   -1.0345    0.0383 N   0  0  0  0  0  0  0  0  0  0  0  0
    9.3718   -1.8980    0.0476 C   0  0  0  0  0  0  0  0  0  0  0  0
   10.7257   -1.3507    0.0556 C   0  0  0  0  0  0  0  0  0  0  0  0
   11.1063   -0.0202    0.0547 C   0  0  0  0  0  0  0  0  0  0  0  0
   12.5082    0.1515    0.0639 C   0  0  0  0  0  0  0  0  0  0  0  0
   13.1997   -1.0546    0.0719 C   0  0  0  0  0  0  0  0  0  0  0  0
   14.6009   -1.2540    0.0821 C   0  0  0  0  0  0  0  0  0  0  0  0
   15.8026   -1.4357    0.0909 C   0  0  0  0  0  0  0  0  0  0  0  0
   12.1020   -2.4129    0.0678 S   0  0  0  0  0  0  0  0  0  0  0  0
    9.2449   -3.2328    0.0502 N   0  0  0  0  0  0  0  0  0  0  0  0
    7.9867   -3.6944    0.0427 C   0  0  0  0  0  0  0  0  0  0  0  0
    7.7886   -5.1398    0.0451 C   0  0  0  0  0  0  0  0  0  0  0  0
    8.7585   -6.1276    0.0544 C   0  0  0  0  0  0  0  0  0  0  0  0
    8.2151   -7.4308    0.0541 C   0  0  0  0  0  0  0  0  0  0  0  0
    6.8245   -7.4357    0.0445 C   0  0  0  0  0  0  0  0  0  0  0  0
    5.9591   -8.5558    0.0414 C   0  0  0  0  0  0  0  0  0  0  0  0
    5.2081   -9.5114    0.0387 C   0  0  0  0  0  0  0  0  0  0  0  0
    6.1849   -5.8110    0.0355 S   0  0  0  0  0  0  0  0  0  0  0  0
    6.8974   -2.9134    0.0331 N   0  0  0  0  0  0  0  0  0  0  0  0
    4.3587   -1.3637    0.0115 S   0  0  0  0  0  0  0  0  0  0  0  0
   -0.0129    0.6985   -0.0305 H   0  0  0  0  0  0  0  0  0  0  0  0
    4.4176    2.2820    0.0027 H   0  0  0  0  0  0  0  0  0  0  0  0
    6.8747    1.2632    0.0223 H   0  0  0  0  0  0  0  0  0  0  0  0
   10.3755    0.7879    0.0475 H   0  0  0  0  0  0  0  0  0  0  0  0
   13.0152    1.1166    0.0649 H   0  0  0  0  0  0  0  0  0  0  0  0
   16.8650   -1.5919    0.0985 H   0  0  0  0  0  0  0  0  0  0  0  0
    9.8220   -5.8898    0.0612 H   0  0  0  0  0  0  0  0  0  0  0  0
    8.8035   -8.3485    0.0606 H   0  0  0  0  0  0  0  0  0  0  0  0
    4.5482  -10.3584    0.0370 H   0  0  0  0  0  0  0  0  0  0  0  0
  1  2  3  0
  1 28  1  0
  2  3  1  0
  3  4  2  0
  3 27  1  0
  4  5  1  0
  4 29  1  0
  5  6  2  0
  5 30  1  0
  6  7  1  0
  6 27  1  0
  7  8  2  0
  7 26  1  0
  8  9  1  0
  9 10  1  0
  9 17  2  0
 10 11  2  0
 10 16  1  0
 11 12  1  0
 11 31  1  0
 12 13  2  0
 12 32  1  0
 13 14  1  0
 13 16  1  0
 14 15  3  0
 15 33  1  0
 17 18  1  0
 18 19  1  0
 18 26  2  0
 19 20  2  0
 19 25  1  0
 20 21  1  0
 20 34  1  0
 21 22  2  0
 21 35  1  0
 22 23  1  0
 22 25  1  0
 23 24  3  0
 24 36  1  0
M  END

