
     RDKit          3D

 54 53  0  0  0  0  0  0  0  0999 V2000
    1.5521    2.3050   -0.7630 C   0  0  0  0  0  0  0  0  0  0  0  0
    2.8694    1.6543   -0.3382 C   0  0  0  0  0  0  0  0  0  0  0  0
    3.0726    0.2483   -0.9114 C   0  0  0  0  0  0  0  0  0  0  0  0
    4.3895   -0.4107   -0.4911 C   0  0  0  0  0  0  0  0  0  0  0  0
    4.5919   -1.8164   -1.0645 C   0  0  0  0  0  0  0  0  0  0  0  0
    5.9091   -2.4753   -0.6443 C   0  0  0  0  0  0  0  0  0  0  0  0
    6.1106   -3.8807   -1.2184 C   0  0  0  0  0  0  0  0  0  0  0  0
    7.4275   -4.5405   -0.7989 C   0  0  0  0  0  0  0  0  0  0  0  0
    7.6231   -5.9420   -1.3824 C   0  0  0  0  0  0  0  0  0  0  0  0
    8.9367   -6.5959   -0.9573 C   0  0  0  0  0  0  0  0  0  0  0  0
    9.1669   -7.9490   -1.6106 C   0  0  0  0  0  0  0  0  0  0  0  0
    8.5947   -8.3636   -2.5802 O   0  0  0  0  0  0  0  0  0  0  0  0
   10.1379   -8.6137   -0.9282 O   0  0  0  0  0  0  0  0  0  0  0  0
   10.5125   -9.8474   -1.5209 N   0  0  0  0  0  0  0  0  0  0  0  0
   11.2274  -10.5635   -0.7055 C   0  0  0  0  0  0  0  0  0  0  0  0
   11.8631  -10.1499    0.4550 N   0  0  0  0  0  0  0  0  0  0  0  0
   11.7747  -10.9323    1.6745 C   0  0  0  0  0  0  0  0  0  0  0  0
   12.3993   -8.8107    0.6004 C   0  0  0  0  0  0  0  0  0  0  0  0
   11.3726  -11.9081   -1.0336 N   0  0  0  0  0  0  0  0  0  0  0  0
   10.4663  -12.4777   -2.0183 C   0  0  0  0  0  0  0  0  0  0  0  0
   12.7020  -12.5008   -1.0308 C   0  0  0  0  0  0  0  0  0  0  0  0
    1.4398    3.3132   -0.3329 H   0  0  0  0  0  0  0  0  0  0  0  0
    0.6853    1.7059   -0.4365 H   0  0  0  0  0  0  0  0  0  0  0  0
    1.4885    2.4026   -1.8599 H   0  0  0  0  0  0  0  0  0  0  0  0
    2.9182    1.6064    0.7652 H   0  0  0  0  0  0  0  0  0  0  0  0
    3.7144    2.2970   -0.6462 H   0  0  0  0  0  0  0  0  0  0  0  0
    3.0241    0.2952   -2.0156 H   0  0  0  0  0  0  0  0  0  0  0  0
    2.2275   -0.3958   -0.6036 H   0  0  0  0  0  0  0  0  0  0  0  0
    4.4377   -0.4570    0.6131 H   0  0  0  0  0  0  0  0  0  0  0  0
    5.2341    0.2337   -0.7991 H   0  0  0  0  0  0  0  0  0  0  0  0
    4.5436   -1.7704   -2.1684 H   0  0  0  0  0  0  0  0  0  0  0  0
    3.7476   -2.4611   -0.7564 H   0  0  0  0  0  0  0  0  0  0  0  0
    5.9577   -2.5216    0.4598 H   0  0  0  0  0  0  0  0  0  0  0  0
    6.7535   -1.8307   -0.9527 H   0  0  0  0  0  0  0  0  0  0  0  0
    6.0629   -3.8354   -2.3222 H   0  0  0  0  0  0  0  0  0  0  0  0
    5.2665   -4.5255   -0.9105 H   0  0  0  0  0  0  0  0  0  0  0  0
    7.4752   -4.5893    0.3053 H   0  0  0  0  0  0  0  0  0  0  0  0
    8.2721   -3.8948   -1.1049 H   0  0  0  0  0  0  0  0  0  0  0  0
    7.5865   -5.9038   -2.4836 H   0  0  0  0  0  0  0  0  0  0  0  0
    6.7816   -6.5913   -1.0832 H   0  0  0  0  0  0  0  0  0  0  0  0
    8.9981   -6.7149    0.1373 H   0  0  0  0  0  0  0  0  0  0  0  0
    9.7947   -5.9544   -1.2321 H   0  0  0  0  0  0  0  0  0  0  0  0
   11.2928  -11.8952    1.4651 H   0  0  0  0  0  0  0  0  0  0  0  0
   11.1769  -10.4040    2.4425 H   0  0  0  0  0  0  0  0  0  0  0  0
   12.7744  -11.1264    2.1057 H   0  0  0  0  0  0  0  0  0  0  0  0
   12.5755   -8.3629   -0.3848 H   0  0  0  0  0  0  0  0  0  0  0  0
   13.3647   -8.8652    1.1355 H   0  0  0  0  0  0  0  0  0  0  0  0
   11.7294   -8.1378    1.1658 H   0  0  0  0  0  0  0  0  0  0  0  0
    9.4562  -12.0760   -1.8733 H   0  0  0  0  0  0  0  0  0  0  0  0
   10.4515  -13.5734   -1.8989 H   0  0  0  0  0  0  0  0  0  0  0  0
   10.7687  -12.2413   -3.0561 H   0  0  0  0  0  0  0  0  0  0  0  0
   13.3511  -11.9821   -0.3151 H   0  0  0  0  0  0  0  0  0  0  0  0
   13.1767  -12.4409   -2.0310 H   0  0  0  0  0  0  0  0  0  0  0  0
   12.6467  -13.5648   -0.7467 H   0  0  0  0  0  0  0  0  0  0  0  0
  1  2  1  0
  1 22  1  0
  1 23  1  0
  1 24  1  0
  2  3  1  0
  2 25  1  0
  2 26  1  0
  3  4  1  0
  3 27  1  0
  3 28  1  0
  4  5  1  0
  4 29  1  0
  4 30  1  0
  5  6  1  0
  5 31  1  0
  5 32  1  0
  6  7  1  0
  6 33  1  0
  6 34  1  0
  7  8  1  0
  7 35  1  0
  7 36  1  0
  8  9  1  0
  8 37  1  0
  8 38  1  0
  9 10  1  0
  9 39  1  0
  9 40  1  0
 10 11  1  0
 10 41  1  0
 10 42  1  0
 11 12  2  0
 11 13  1  0
 13 14  1  0
 14 15  2  0
 15 16  1  0
 15 19  1  0
 16 17  1  0
 16 18  1  0
 17 43  1  0
 17 44  1  0
 17 45  1  0
 18 46  1  0
 18 47  1  0
 18 48  1  0
 19 20  1  0
 19 21  1  0
 20 49  1  0
 20 50  1  0
 20 51  1  0
 21 52  1  0
 21 53  1  0
 21 54  1  0
M  END

