
     RDKit          3D

 41 42  0  0  0  0  0  0  0  0999 V2000
    3.4320   -3.7100   -0.0720 C   0  0  0  0  0  0  0  0  0  0  0  0
    2.5735   -2.5152    0.3282 C   0  0  0  0  0  0  0  0  0  0  0  0
    2.6123   -1.4024   -0.6282 N   0  0  0  0  0  0  0  0  0  0  0  0
    2.2732   -1.7151   -2.0092 C   0  0  0  0  0  0  0  0  0  0  0  0
    0.8207   -2.1817   -2.2222 C   0  0  0  0  0  0  0  0  0  0  0  0
    0.4543   -3.2832   -1.8466 O   0  0  0  0  0  0  0  0  0  0  0  0
   -0.0052   -1.2480   -2.8073 N   0  0  0  0  0  0  0  0  0  0  0  0
   -1.3813   -1.3309   -3.1055 C   0  0  0  0  0  0  0  0  0  0  0  0
   -2.1664   -2.4513   -2.7940 C   0  0  0  0  0  0  0  0  0  0  0  0
   -3.5236   -2.4339   -3.1313 C   0  0  0  0  0  0  0  0  0  0  0  0
   -4.1092   -1.3401   -3.7631 C   0  0  0  0  0  0  0  0  0  0  0  0
   -3.3232   -0.2145   -4.0763 C   0  0  0  0  0  0  0  0  0  0  0  0
   -4.1593    1.1317   -4.8813 S   0  0  0  0  0  0  0  0  0  0  0  0
   -2.8577    2.3737   -5.1192 C   0  0  0  0  0  0  0  0  0  0  0  0
   -1.9640   -0.2187   -3.7453 C   0  0  0  0  0  0  0  0  0  0  0  0
    1.9768   -0.1945   -0.1176 C   0  0  0  0  0  0  0  0  0  0  0  0
    2.7856    0.4720    0.9688 C   0  0  0  0  0  0  0  0  0  0  0  0
    4.1502    0.6205    1.0474 C   0  0  0  0  0  0  0  0  0  0  0  0
    4.5697    1.3599    2.1954 C   0  0  0  0  0  0  0  0  0  0  0  0
    3.5180    1.7677    2.9765 C   0  0  0  0  0  0  0  0  0  0  0  0
    2.0046    1.2426    2.3211 S   0  0  0  0  0  0  0  0  0  0  0  0
    3.4868   -4.4227    0.7656 H   0  0  0  0  0  0  0  0  0  0  0  0
    4.4587   -3.3963   -0.3215 H   0  0  0  0  0  0  0  0  0  0  0  0
    3.0039   -4.2498   -0.9297 H   0  0  0  0  0  0  0  0  0  0  0  0
    2.9416   -2.1106    1.2842 H   0  0  0  0  0  0  0  0  0  0  0  0
    1.5328   -2.8572    0.5057 H   0  0  0  0  0  0  0  0  0  0  0  0
    2.9165   -2.5341   -2.3616 H   0  0  0  0  0  0  0  0  0  0  0  0
    2.5021   -0.8324   -2.6313 H   0  0  0  0  0  0  0  0  0  0  0  0
    0.4392   -0.3811   -3.0848 H   0  0  0  0  0  0  0  0  0  0  0  0
   -1.7117   -3.3066   -2.3017 H   0  0  0  0  0  0  0  0  0  0  0  0
   -4.1392   -3.3047   -2.8907 H   0  0  0  0  0  0  0  0  0  0  0  0
   -5.1722   -1.3509   -4.0161 H   0  0  0  0  0  0  0  0  0  0  0  0
   -3.3487    3.2217   -5.6171 H   0  0  0  0  0  0  0  0  0  0  0  0
   -2.0508    2.0029   -5.7692 H   0  0  0  0  0  0  0  0  0  0  0  0
   -2.4419    2.7207   -4.1612 H   0  0  0  0  0  0  0  0  0  0  0  0
   -1.3332    0.6416   -3.9777 H   0  0  0  0  0  0  0  0  0  0  0  0
    0.9428   -0.3737    0.2527 H   0  0  0  0  0  0  0  0  0  0  0  0
    1.8730    0.5136   -0.9598 H   0  0  0  0  0  0  0  0  0  0  0  0
    4.8251    0.1974    0.3023 H   0  0  0  0  0  0  0  0  0  0  0  0
    5.6123    1.5794    2.4322 H   0  0  0  0  0  0  0  0  0  0  0  0
    3.5446    2.3418    3.9016 H   0  0  0  0  0  0  0  0  0  0  0  0
  1  2  1  0
  1 22  1  0
  1 23  1  0
  1 24  1  0
  2  3  1  0
  2 25  1  0
  2 26  1  0
  3  4  1  0
  3 16  1  0
  4  5  1  0
  4 27  1  0
  4 28  1  0
  5  6  2  0
  5  7  1  0
  7  8  1  0
  7 29  1  0
  8  9  2  0
  8 15  1  0
  9 10  1  0
  9 30  1  0
 10 11  2  0
 10 31  1  0
 11 12  1  0
 11 32  1  0
 12 13  1  0
 12 15  2  0
 13 14  1  0
 14 33  1  0
 14 34  1  0
 14 35  1  0
 15 36  1  0
 16 17  1  0
 16 37  1  0
 16 38  1  0
 17 18  2  0
 17 21  1  0
 18 19  1  0
 18 39  1  0
 19 20  2  0
 19 40  1  0
 20 21  1  0
 20 41  1  0
M  END

