
     RDKit          3D

 39 40  0  0  0  0  0  0  0  0999 V2000
    2.0809   -0.9222    0.8889 C   0  0  0  0  0  0  0  0  0  0  0  0
    2.1534   -1.1854   -0.6240 C   0  0  1  0  0  0  0  0  0  0  0  0
    1.0017   -0.5002   -1.3629 C   0  0  0  0  0  0  0  0  0  0  0  0
    3.4261   -0.7815   -1.2367 N   0  0  0  0  0  0  0  0  0  0  0  0
    4.5997   -1.5851   -0.9054 C   0  0  0  0  0  0  0  0  0  0  0  0
    4.6210   -2.8720   -1.6805 C   0  0  0  0  0  0  0  0  0  0  0  0
    5.0696   -4.1316   -1.3454 C   0  0  0  0  0  0  0  0  0  0  0  0
    4.8978   -4.9666   -2.5049 C   0  0  0  0  0  0  0  0  0  0  0  0
    5.1574   -6.3209   -2.7933 C   0  0  0  0  0  0  0  0  0  0  0  0
    4.8526   -6.8464   -4.0499 C   0  0  0  0  0  0  0  0  0  0  0  0
    5.1347   -8.3126   -4.3622 C   0  0  1  0  0  0  0  0  0  0  0  0
    3.8490   -9.0998   -4.6698 C   0  0  0  0  0  0  0  0  0  0  0  0
    6.1700   -8.4788   -5.4883 C   0  0  0  0  0  0  0  0  0  0  0  0
    4.2772   -5.9974   -5.0313 C   0  0  0  0  0  0  0  0  0  0  0  0
    4.0074   -4.6547   -4.7843 C   0  0  0  0  0  0  0  0  0  0  0  0
    4.3238   -4.1447   -3.5184 C   0  0  0  0  0  0  0  0  0  0  0  0
    4.1799   -2.8816   -2.9877 N   0  0  0  0  0  0  0  0  0  0  0  0
    3.7310   -2.0784   -3.4104 H   0  0  0  0  0  0  0  0  0  0  0  0
    1.1357   -1.2972    1.3136 H   0  0  0  0  0  0  0  0  0  0  0  0
    2.1353    0.1604    1.0995 H   0  0  0  0  0  0  0  0  0  0  0  0
    2.9025   -1.4151    1.4321 H   0  0  0  0  0  0  0  0  0  0  0  0
    2.0657   -2.2744   -0.7870 H   0  0  0  0  0  0  0  0  0  0  0  0
    1.0662    0.5971   -1.2571 H   0  0  0  0  0  0  0  0  0  0  0  0
    0.0254   -0.8147   -0.9617 H   0  0  0  0  0  0  0  0  0  0  0  0
    1.0314   -0.7365   -2.4372 H   0  0  0  0  0  0  0  0  0  0  0  0
    3.6065    0.2031   -1.0459 H   0  0  0  0  0  0  0  0  0  0  0  0
    4.7082   -1.8233    0.1722 H   0  0  0  0  0  0  0  0  0  0  0  0
    5.4887   -0.9860   -1.1749 H   0  0  0  0  0  0  0  0  0  0  0  0
    5.4815   -4.4242   -0.3811 H   0  0  0  0  0  0  0  0  0  0  0  0
    5.6000   -6.9657   -2.0278 H   0  0  0  0  0  0  0  0  0  0  0  0
    5.5741   -8.7503   -3.4487 H   0  0  0  0  0  0  0  0  0  0  0  0
    3.3577   -8.7275   -5.5840 H   0  0  0  0  0  0  0  0  0  0  0  0
    3.1236   -9.0167   -3.8452 H   0  0  0  0  0  0  0  0  0  0  0  0
    4.0696  -10.1692   -4.8249 H   0  0  0  0  0  0  0  0  0  0  0  0
    5.7947   -8.0754   -6.4434 H   0  0  0  0  0  0  0  0  0  0  0  0
    6.4087   -9.5434   -5.6498 H   0  0  0  0  0  0  0  0  0  0  0  0
    7.1068   -7.9510   -5.2497 H   0  0  0  0  0  0  0  0  0  0  0  0
    4.0369   -6.4052   -6.0167 H   0  0  0  0  0  0  0  0  0  0  0  0
    3.5652   -4.0207   -5.5574 H   0  0  0  0  0  0  0  0  0  0  0  0
  1  2  1  0
  1 19  1  0
  1 20  1  0
  1 21  1  0
  2  3  1  0
  2  4  1  0
  2 22  1  1
  3 23  1  0
  3 24  1  0
  3 25  1  0
  4  5  1  0
  4 26  1  0
  5  6  1  0
  5 27  1  0
  5 28  1  0
  6  7  2  0
  6 17  1  0
  7  8  1  0
  7 29  1  0
  8  9  2  0
  8 16  1  0
  9 10  1  0
  9 30  1  0
 10 11  1  0
 10 14  2  0
 11 12  1  0
 11 13  1  0
 11 31  1  1
 12 32  1  0
 12 33  1  0
 12 34  1  0
 13 35  1  0
 13 36  1  0
 13 37  1  0
 14 15  1  0
 14 38  1  0
 15 16  2  0
 15 39  1  0
 16 17  1  0
 17 18  1  0
M  END

