
     RDKit          3D

 60 60  0  0  0  0  0  0  0  0999 V2000
    5.0170   -2.0836    2.3188 C   0  0  0  0  0  0  0  0  0  0  0  0
    5.7234   -0.8120    1.8452 C   0  0  0  0  0  0  0  0  0  0  0  0
    6.9520   -1.0759    0.9659 C   0  0  0  0  0  0  0  0  0  0  0  0
    7.6331    0.1798    0.3954 C   0  0  0  0  0  0  0  0  0  0  0  0
    8.0895    1.2185    1.4310 C   0  0  0  0  0  0  0  0  0  0  0  0
    9.1813    0.7177    2.3830 C   0  0  1  0  0  0  0  0  0  0  0  0
   10.3575    0.3222    1.6779 O   0  0  0  0  0  0  0  0  0  0  0  0
    9.5385    1.6522    3.5158 C   0  0  0  0  0  0  0  0  0  0  0  0
    8.9715    2.8273    3.8189 C   0  0  0  0  0  0  0  0  0  0  0  0
    9.3126    3.6744    5.0125 C   0  0  1  0  0  0  0  0  0  0  0  0
   10.1708    3.2046    5.5197 H   0  0  0  0  0  0  0  0  0  0  0  0
    9.7040    5.1312    4.6487 C   0  0  0  0  0  0  0  0  0  0  0  0
    9.2957    5.9572    5.8746 C   0  0  0  0  0  0  0  0  0  0  0  0
    7.9406    5.3552    6.2685 C   0  0  1  0  0  0  0  0  0  0  0  0
    7.6675    5.5990    7.3064 H   0  0  0  0  0  0  0  0  0  0  0  0
    6.8769    5.8808    5.4866 O   0  0  0  0  0  0  0  0  0  0  0  0
    8.1488    3.8223    6.0869 C   0  0  1  0  0  0  0  0  0  0  0  0
    8.5525    3.4445    7.0422 H   0  0  0  0  0  0  0  0  0  0  0  0
    6.8649    3.0378    5.7885 C   0  0  0  0  0  0  0  0  0  0  0  0
    5.8441    3.0488    6.9326 C   0  0  0  0  0  0  0  0  0  0  0  0
    4.5213    2.2991    6.6571 C   0  0  1  0  0  0  0  0  0  0  0  0
    3.7078    2.9350    5.5208 C   0  0  0  0  0  0  0  0  0  0  0  0
    4.7557    0.7909    6.4153 C   0  0  0  0  0  0  0  0  0  0  0  0
    3.4870   -0.0225    6.2772 C   0  0  0  0  0  0  0  0  0  0  0  0
    3.1838   -0.6989    5.3234 O   0  0  0  0  0  0  0  0  0  0  0  0
    2.7049    0.0864    7.3715 O   0  0  0  0  0  0  0  0  0  0  0  0
    1.4791   -0.6440    7.3509 C   0  0  0  0  0  0  0  0  0  0  0  0
    4.1970   -1.8461    3.0138 H   0  0  0  0  0  0  0  0  0  0  0  0
    5.7176   -2.7509    2.8498 H   0  0  0  0  0  0  0  0  0  0  0  0
    4.6016   -2.6540    1.4708 H   0  0  0  0  0  0  0  0  0  0  0  0
    6.0178   -0.2235    2.7321 H   0  0  0  0  0  0  0  0  0  0  0  0
    5.0075   -0.1758    1.2918 H   0  0  0  0  0  0  0  0  0  0  0  0
    6.6548   -1.7206    0.1192 H   0  0  0  0  0  0  0  0  0  0  0  0
    7.6852   -1.6723    1.5390 H   0  0  0  0  0  0  0  0  0  0  0  0
    6.9385    0.6756   -0.3060 H   0  0  0  0  0  0  0  0  0  0  0  0
    8.5092   -0.1292   -0.1982 H   0  0  0  0  0  0  0  0  0  0  0  0
    7.2245    1.5605    2.0217 H   0  0  0  0  0  0  0  0  0  0  0  0
    8.4696    2.1142    0.9054 H   0  0  0  0  0  0  0  0  0  0  0  0
    8.8302   -0.2194    2.8517 H   0  0  0  0  0  0  0  0  0  0  0  0
   10.7537    1.1244    1.3092 H   0  0  0  0  0  0  0  0  0  0  0  0
   10.3500    1.2734    4.1516 H   0  0  0  0  0  0  0  0  0  0  0  0
    8.1661    3.2090    3.1801 H   0  0  0  0  0  0  0  0  0  0  0  0
    9.1369    5.4646    3.7591 H   0  0  0  0  0  0  0  0  0  0  0  0
   10.7679    5.2255    4.3833 H   0  0  0  0  0  0  0  0  0  0  0  0
    9.2244    7.0401    5.6898 H   0  0  0  0  0  0  0  0  0  0  0  0
   10.0209    5.8019    6.6921 H   0  0  0  0  0  0  0  0  0  0  0  0
    7.0968    5.7793    4.5511 H   0  0  0  0  0  0  0  0  0  0  0  0
    6.3938    3.4478    4.8817 H   0  0  0  0  0  0  0  0  0  0  0  0
    7.1444    2.0002    5.5468 H   0  0  0  0  0  0  0  0  0  0  0  0
    5.5920    4.0934    7.1795 H   0  0  0  0  0  0  0  0  0  0  0  0
    6.3124    2.6197    7.8378 H   0  0  0  0  0  0  0  0  0  0  0  0
    3.9201    2.3794    7.5786 H   0  0  0  0  0  0  0  0  0  0  0  0
    4.1901    2.7933    4.5400 H   0  0  0  0  0  0  0  0  0  0  0  0
    3.5891    4.0183    5.6816 H   0  0  0  0  0  0  0  0  0  0  0  0
    2.6998    2.4953    5.4539 H   0  0  0  0  0  0  0  0  0  0  0  0
    5.3282    0.3742    7.2622 H   0  0  0  0  0  0  0  0  0  0  0  0
    5.3360    0.6174    5.4982 H   0  0  0  0  0  0  0  0  0  0  0  0
    0.9816   -0.4362    8.3064 H   0  0  0  0  0  0  0  0  0  0  0  0
    1.6675   -1.7234    7.2459 H   0  0  0  0  0  0  0  0  0  0  0  0
    0.8434   -0.3217    6.5121 H   0  0  0  0  0  0  0  0  0  0  0  0
  1  2  1  0
  1 28  1  0
  1 29  1  0
  1 30  1  0
  2  3  1  0
  2 31  1  0
  2 32  1  0
  3  4  1  0
  3 33  1  0
  3 34  1  0
  4  5  1  0
  4 35  1  0
  4 36  1  0
  5  6  1  0
  5 37  1  0
  5 38  1  0
  6  7  1  0
  6  8  1  0
  6 39  1  1
  7 40  1  0
  8  9  2  0
  8 41  1  0
  9 10  1  0
  9 42  1  0
 10 11  1  1
 10 12  1  0
 10 17  1  0
 12 13  1  0
 12 43  1  0
 12 44  1  0
 13 14  1  0
 13 45  1  0
 13 46  1  0
 14 15  1  1
 14 16  1  0
 14 17  1  0
 16 47  1  0
 17 18  1  1
 17 19  1  0
 19 20  1  0
 19 48  1  0
 19 49  1  0
 20 21  1  0
 20 50  1  0
 20 51  1  0
 21 22  1  0
 21 23  1  0
 21 52  1  1
 22 53  1  0
 22 54  1  0
 22 55  1  0
 23 24  1  0
 23 56  1  0
 23 57  1  0
 24 25  2  0
 24 26  1  0
 26 27  1  0
 27 58  1  0
 27 59  1  0
 27 60  1  0
M  END

