
     RDKit          3D

 47 50  0  0  0  0  0  0  0  0999 V2000
    1.1470    0.8520    0.8093 Cl  0  0  0  0  0  0  0  0  0  0  0  0
    2.8341    0.6266    0.4091 C   0  0  0  0  0  0  0  0  0  0  0  0
    3.6634    1.7376    0.2371 C   0  0  0  0  0  0  0  0  0  0  0  0
    5.0068    1.5431   -0.0817 C   0  0  0  0  0  0  0  0  0  0  0  0
    5.5560    0.2529   -0.2366 C   0  0  0  0  0  0  0  0  0  0  0  0
    6.9738    0.1217   -0.5716 C   0  0  0  0  0  0  0  0  0  0  0  0
    7.6709   -1.0227   -0.7625 C   0  0  0  0  0  0  0  0  0  0  0  0
    9.0817   -1.0582   -1.0928 C   0  0  0  0  0  0  0  0  0  0  0  0
    9.8402    0.0731   -1.2388 N   0  0  0  0  0  0  0  0  0  0  0  0
   11.0651   -0.3209   -1.5363 C   0  0  0  0  0  0  0  0  0  0  0  0
   12.2057    0.5689   -1.7773 C   0  0  0  0  0  0  0  0  0  0  0  0
   12.0131    1.9608   -1.6809 C   0  0  0  0  0  0  0  0  0  0  0  0
   13.0725    2.8384   -1.9024 C   0  0  0  0  0  0  0  0  0  0  0  0
   14.3436    2.3475   -2.2241 C   0  0  0  0  0  0  0  0  0  0  0  0
   14.5458    0.9678   -2.3228 C   0  0  0  0  0  0  0  0  0  0  0  0
   13.4870    0.0854   -2.1018 C   0  0  0  0  0  0  0  0  0  0  0  0
   11.1330   -1.6901   -1.5909 N   0  0  0  0  0  0  0  0  0  0  0  0
   11.9575   -2.2396   -1.7907 H   0  0  0  0  0  0  0  0  0  0  0  0
    9.8796   -2.1999   -1.3111 C   0  0  0  0  0  0  0  0  0  0  0  0
    9.5438   -3.5962   -1.2723 C   0  0  0  0  0  0  0  0  0  0  0  0
   10.3800   -4.6399   -1.5089 C   0  0  0  0  0  0  0  0  0  0  0  0
   10.0499   -6.0637   -1.4706 C   0  0  0  0  0  0  0  0  0  0  0  0
   11.0553   -7.0109   -1.7596 C   0  0  0  0  0  0  0  0  0  0  0  0
   10.8027   -8.3816   -1.7407 C   0  0  0  0  0  0  0  0  0  0  0  0
    9.5195   -8.8368   -1.4269 C   0  0  0  0  0  0  0  0  0  0  0  0
    9.1857  -10.5516   -1.3986 Cl  0  0  0  0  0  0  0  0  0  0  0  0
    8.4978   -7.9248   -1.1342 C   0  0  0  0  0  0  0  0  0  0  0  0
    8.7648   -6.5593   -1.1570 C   0  0  0  0  0  0  0  0  0  0  0  0
    4.6884   -0.8466   -0.0552 C   0  0  0  0  0  0  0  0  0  0  0  0
    3.3453   -0.6689    0.2632 C   0  0  0  0  0  0  0  0  0  0  0  0
    3.2560    2.7433    0.3530 H   0  0  0  0  0  0  0  0  0  0  0  0
    5.6536    2.4142   -0.2157 H   0  0  0  0  0  0  0  0  0  0  0  0
    7.5292    1.0584   -0.6792 H   0  0  0  0  0  0  0  0  0  0  0  0
    7.1727   -1.9918   -0.6701 H   0  0  0  0  0  0  0  0  0  0  0  0
   11.0174    2.3286   -1.4292 H   0  0  0  0  0  0  0  0  0  0  0  0
   12.9071    3.9159   -1.8238 H   0  0  0  0  0  0  0  0  0  0  0  0
   15.1730    3.0376   -2.3973 H   0  0  0  0  0  0  0  0  0  0  0  0
   15.5340    0.5746   -2.5739 H   0  0  0  0  0  0  0  0  0  0  0  0
   13.6749   -0.9884   -2.1876 H   0  0  0  0  0  0  0  0  0  0  0  0
    8.4990   -3.7986   -1.0247 H   0  0  0  0  0  0  0  0  0  0  0  0
   11.4261   -4.4303   -1.7613 H   0  0  0  0  0  0  0  0  0  0  0  0
   12.0619   -6.6617   -2.0063 H   0  0  0  0  0  0  0  0  0  0  0  0
   11.5935   -9.0987   -1.9673 H   0  0  0  0  0  0  0  0  0  0  0  0
    7.4996   -8.2920   -0.8898 H   0  0  0  0  0  0  0  0  0  0  0  0
    7.9525   -5.8678   -0.9240 H   0  0  0  0  0  0  0  0  0  0  0  0
    5.0671   -1.8651   -0.1641 H   0  0  0  0  0  0  0  0  0  0  0  0
    2.6866   -1.5282    0.4004 H   0  0  0  0  0  0  0  0  0  0  0  0
  1  2  1  0
  2  3  2  0
  2 30  1  0
  3  4  1  0
  3 31  1  0
  4  5  2  0
  4 32  1  0
  5  6  1  0
  5 29  1  0
  6  7  2  0
  6 33  1  0
  7  8  1  0
  7 34  1  0
  8  9  1  0
  8 19  2  0
  9 10  2  0
 10 11  1  0
 10 17  1  0
 11 12  2  0
 11 16  1  0
 12 13  1  0
 12 35  1  0
 13 14  2  0
 13 36  1  0
 14 15  1  0
 14 37  1  0
 15 16  2  0
 15 38  1  0
 16 39  1  0
 17 18  1  0
 17 19  1  0
 19 20  1  0
 20 21  2  0
 20 40  1  0
 21 22  1  0
 21 41  1  0
 22 23  2  0
 22 28  1  0
 23 24  1  0
 23 42  1  0
 24 25  2  0
 24 43  1  0
 25 26  1  0
 25 27  1  0
 27 28  2  0
 27 44  1  0
 28 45  1  0
 29 30  2  0
 29 46  1  0
 30 47  1  0
M  END

