
     RDKit          3D

 32 32  0  0  0  0  0  0  0  0999 V2000
    2.7516   -1.3162   -0.2236 N   0  0  0  0  0  0  0  0  0  0  0  0
    2.6504    0.0572   -0.0553 C   0  0  0  0  0  0  0  0  0  0  0  0
    3.3165    0.6554    1.1609 C   0  0  0  0  0  0  0  0  0  0  0  0
    2.3109    1.0719    2.2482 C   0  0  0  0  0  0  0  0  0  0  0  0
    2.9831    1.7001    3.4703 C   0  0  0  0  0  0  0  0  0  0  0  0
    1.9895    2.1261    4.5500 C   0  0  0  0  0  0  0  0  0  0  0  0
    2.6730    2.7009    5.6884 N   0  0  0  0  0  0  0  0  0  0  0  0
    2.0327    3.1586    6.8209 C   0  0  0  0  0  0  0  0  0  0  0  0
    2.7576    3.8818    7.7994 C   0  0  0  0  0  0  0  0  0  0  0  0
    2.1338    4.3267    8.9606 C   0  0  0  0  0  0  0  0  0  0  0  0
    0.7766    4.0766    9.2014 C   0  0  0  0  0  0  0  0  0  0  0  0
    0.0768    3.3687    8.2300 C   0  0  0  0  0  0  0  0  0  0  0  0
   -1.2292    3.1146    8.4226 F   0  0  0  0  0  0  0  0  0  0  0  0
    0.6630    2.9112    7.0525 C   0  0  0  0  0  0  0  0  0  0  0  0
    2.0316    0.7336   -0.9575 N   0  0  0  0  0  0  0  0  0  0  0  0
    2.1090    2.1179   -0.7088 O   0  0  0  0  0  0  0  0  0  0  0  0
    2.7199   -1.8663    0.6288 H   0  0  0  0  0  0  0  0  0  0  0  0
    2.1559   -1.6869   -0.9594 H   0  0  0  0  0  0  0  0  0  0  0  0
    3.8802    1.5432    0.8343 H   0  0  0  0  0  0  0  0  0  0  0  0
    4.0445   -0.0676    1.5641 H   0  0  0  0  0  0  0  0  0  0  0  0
    1.7220    0.1915    2.5638 H   0  0  0  0  0  0  0  0  0  0  0  0
    1.5983    1.7847    1.8036 H   0  0  0  0  0  0  0  0  0  0  0  0
    3.5674    2.5823    3.1478 H   0  0  0  0  0  0  0  0  0  0  0  0
    3.7077    0.9924    3.9118 H   0  0  0  0  0  0  0  0  0  0  0  0
    1.4122    1.2426    4.8788 H   0  0  0  0  0  0  0  0  0  0  0  0
    1.2500    2.8320    4.1160 H   0  0  0  0  0  0  0  0  0  0  0  0
    3.5785    3.1140    5.5008 H   0  0  0  0  0  0  0  0  0  0  0  0
    3.8198    4.0841    7.6366 H   0  0  0  0  0  0  0  0  0  0  0  0
    2.7163    4.8825    9.7001 H   0  0  0  0  0  0  0  0  0  0  0  0
    0.2684    4.4156   10.1048 H   0  0  0  0  0  0  0  0  0  0  0  0
    0.0409    2.3718    6.3394 H   0  0  0  0  0  0  0  0  0  0  0  0
    1.6403    2.4866   -1.4671 H   0  0  0  0  0  0  0  0  0  0  0  0
  1  2  1  0
  1 17  1  0
  1 18  1  0
  2  3  1  0
  2 15  2  0
  3  4  1  0
  3 19  1  0
  3 20  1  0
  4  5  1  0
  4 21  1  0
  4 22  1  0
  5  6  1  0
  5 23  1  0
  5 24  1  0
  6  7  1  0
  6 25  1  0
  6 26  1  0
  7  8  1  0
  7 27  1  0
  8  9  2  0
  8 14  1  0
  9 10  1  0
  9 28  1  0
 10 11  2  0
 10 29  1  0
 11 12  1  0
 11 30  1  0
 12 13  1  0
 12 14  2  0
 14 31  1  0
 15 16  1  0
 16 32  1  0
M  END

