
     RDKit          3D

 71 76  0  0  0  0  0  0  0  0999 V2000
    4.5030   -2.4543    0.2348 C   0  0  0  0  0  0  0  0  0  0  0  0
    3.8741   -1.1907    0.7715 C   0  0  0  0  0  0  0  0  0  0  0  0
    4.6509   -0.0486    1.0013 C   0  0  0  0  0  0  0  0  0  0  0  0
    4.1003    1.1326    1.4986 C   0  0  0  0  0  0  0  0  0  0  0  0
    2.7305    1.1968    1.7820 C   0  0  0  0  0  0  0  0  0  0  0  0
    2.1156    2.4535    2.3788 C   0  0  0  0  0  0  0  0  0  0  0  0
    2.6711    3.6841    1.8327 N   0  0  0  0  0  0  0  0  0  0  0  0
    2.2907    3.9723    0.4491 C   0  0  0  0  0  0  0  0  0  0  0  0
    0.8847    4.5836    0.3085 C   0  0  0  0  0  0  0  0  0  0  0  0
    0.7417    5.8281    1.1964 C   0  0  0  0  0  0  0  0  0  0  0  0
    1.1473    5.5154    2.6438 C   0  0  0  0  0  0  0  0  0  0  0  0
    2.5423    4.8652    2.6809 C   0  0  0  0  0  0  0  0  0  0  0  0
    1.9308    0.0717    1.5520 C   0  0  0  0  0  0  0  0  0  0  0  0
    2.4873   -1.1205    1.0557 C   0  0  0  0  0  0  0  0  0  0  0  0
    1.7136   -2.2749    0.8210 N   0  0  0  0  0  0  0  0  0  0  0  0
    0.3558   -2.4707    0.9775 C   0  0  0  0  0  0  0  0  0  0  0  0
   -0.4229   -1.5926    1.3177 O   0  0  0  0  0  0  0  0  0  0  0  0
   -0.1232   -3.8623    0.6769 C   0  0  0  0  0  0  0  0  0  0  0  0
    0.6882   -5.0082    0.6785 C   0  0  0  0  0  0  0  0  0  0  0  0
    0.1762   -6.2767    0.4097 C   0  0  0  0  0  0  0  0  0  0  0  0
   -1.1950   -6.4366    0.1252 C   0  0  0  0  0  0  0  0  0  0  0  0
   -1.8057   -7.6486   -0.1824 N   0  0  0  0  0  0  0  0  0  0  0  0
   -1.3515   -8.9567   -0.1831 C   0  0  0  0  0  0  0  0  0  0  0  0
   -0.1343   -9.2379    0.3442 N   0  0  0  0  0  0  0  0  0  0  0  0
    0.2715  -10.5027    0.3594 C   0  0  0  0  0  0  0  0  0  0  0  0
    1.5868  -10.7802    0.9312 C   0  0  0  0  0  0  0  0  0  0  0  0
    2.4481  -11.9086    0.8050 C   0  0  0  0  0  0  0  0  0  0  0  0
    3.5738  -11.7426    1.4839 N   0  0  0  0  0  0  0  0  0  0  0  0
    3.4670  -10.5303    2.0610 N   0  0  0  0  0  0  0  0  0  0  0  0
    4.5396  -10.0476    2.9081 C   0  0  0  0  0  0  0  0  0  0  0  0
    2.3049   -9.9130    1.7561 C   0  0  0  0  0  0  0  0  0  0  0  0
   -0.5690  -11.5319   -0.1478 C   0  0  0  0  0  0  0  0  0  0  0  0
   -0.5479  -12.9316   -0.2705 C   0  0  0  0  0  0  0  0  0  0  0  0
   -1.7544  -13.3122   -0.8782 C   0  0  0  0  0  0  0  0  0  0  0  0
   -2.5112  -12.1593   -1.1203 C   0  0  0  0  0  0  0  0  0  0  0  0
   -1.7992  -11.0966   -0.6766 N   0  0  0  0  0  0  0  0  0  0  0  0
   -2.2051   -9.8132   -0.7139 N   0  0  0  0  0  0  0  0  0  0  0  0
   -2.0174   -5.2866    0.1357 C   0  0  0  0  0  0  0  0  0  0  0  0
   -1.4932   -4.0329    0.4132 C   0  0  0  0  0  0  0  0  0  0  0  0
    5.5823   -2.3180    0.0780 H   0  0  0  0  0  0  0  0  0  0  0  0
    4.0722   -2.7579   -0.7368 H   0  0  0  0  0  0  0  0  0  0  0  0
    4.3820   -3.3076    0.9272 H   0  0  0  0  0  0  0  0  0  0  0  0
    5.7219   -0.0924    0.7813 H   0  0  0  0  0  0  0  0  0  0  0  0
    4.7201    2.0166    1.6602 H   0  0  0  0  0  0  0  0  0  0  0  0
    2.3251    2.4572    3.4637 H   0  0  0  0  0  0  0  0  0  0  0  0
    1.0106    2.3770    2.2902 H   0  0  0  0  0  0  0  0  0  0  0  0
    2.3772    3.0477   -0.1425 H   0  0  0  0  0  0  0  0  0  0  0  0
    3.0310    4.6826    0.0343 H   0  0  0  0  0  0  0  0  0  0  0  0
    0.1232    3.8358    0.5934 H   0  0  0  0  0  0  0  0  0  0  0  0
    0.6923    4.8334   -0.7490 H   0  0  0  0  0  0  0  0  0  0  0  0
   -0.2875    6.2227    1.1546 H   0  0  0  0  0  0  0  0  0  0  0  0
    1.3976    6.6288    0.8046 H   0  0  0  0  0  0  0  0  0  0  0  0
    0.4071    4.8323    3.0986 H   0  0  0  0  0  0  0  0  0  0  0  0
    1.1449    6.4326    3.2580 H   0  0  0  0  0  0  0  0  0  0  0  0
    2.8204    4.5942    3.7127 H   0  0  0  0  0  0  0  0  0  0  0  0
    3.2863    5.6103    2.3387 H   0  0  0  0  0  0  0  0  0  0  0  0
    0.8610    0.1028    1.7479 H   0  0  0  0  0  0  0  0  0  0  0  0
    2.2175   -3.0523    0.4175 H   0  0  0  0  0  0  0  0  0  0  0  0
    1.7518   -4.9354    0.9231 H   0  0  0  0  0  0  0  0  0  0  0  0
    0.8205   -7.1514    0.4228 H   0  0  0  0  0  0  0  0  0  0  0  0
   -2.7629   -7.5840   -0.5116 H   0  0  0  0  0  0  0  0  0  0  0  0
    2.3021  -12.8143    0.2198 H   0  0  0  0  0  0  0  0  0  0  0  0
    5.4838  -10.0334    2.3443 H   0  0  0  0  0  0  0  0  0  0  0  0
    4.6595  -10.7064    3.7811 H   0  0  0  0  0  0  0  0  0  0  0  0
    4.3022   -9.0314    3.2488 H   0  0  0  0  0  0  0  0  0  0  0  0
    2.0413   -8.9299    2.1383 H   0  0  0  0  0  0  0  0  0  0  0  0
    0.2459  -13.5926    0.0638 H   0  0  0  0  0  0  0  0  0  0  0  0
   -2.0658  -14.3266   -1.1199 H   0  0  0  0  0  0  0  0  0  0  0  0
   -3.4940  -12.0161   -1.5614 H   0  0  0  0  0  0  0  0  0  0  0  0
   -3.0861   -5.3919   -0.0738 H   0  0  0  0  0  0  0  0  0  0  0  0
   -2.1371   -3.1518    0.4343 H   0  0  0  0  0  0  0  0  0  0  0  0
  1  2  1  0
  1 40  1  0
  1 41  1  0
  1 42  1  0
  2  3  2  0
  2 14  1  0
  3  4  1  0
  3 43  1  0
  4  5  2  0
  4 44  1  0
  5  6  1  0
  5 13  1  0
  6  7  1  0
  6 45  1  0
  6 46  1  0
  7  8  1  0
  7 12  1  0
  8  9  1  0
  8 47  1  0
  8 48  1  0
  9 10  1  0
  9 49  1  0
  9 50  1  0
 10 11  1  0
 10 51  1  0
 10 52  1  0
 11 12  1  0
 11 53  1  0
 11 54  1  0
 12 55  1  0
 12 56  1  0
 13 14  2  0
 13 57  1  0
 14 15  1  0
 15 16  1  0
 15 58  1  0
 16 17  2  0
 16 18  1  0
 18 19  2  0
 18 39  1  0
 19 20  1  0
 19 59  1  0
 20 21  2  0
 20 60  1  0
 21 22  1  0
 21 38  1  0
 22 23  1  0
 22 61  1  0
 23 24  1  0
 23 37  2  0
 24 25  2  0
 25 26  1  0
 25 32  1  0
 26 27  1  0
 26 31  2  0
 27 28  2  0
 27 62  1  0
 28 29  1  0
 29 30  1  0
 29 31  1  0
 30 63  1  0
 30 64  1  0
 30 65  1  0
 31 66  1  0
 32 33  2  0
 32 36  1  0
 33 34  1  0
 33 67  1  0
 34 35  2  0
 34 68  1  0
 35 36  1  0
 35 69  1  0
 36 37  1  0
 38 39  2  0
 38 70  1  0
 39 71  1  0
M  END

