
     RDKit          3D

 46 47  0  0  0  0  0  0  0  0999 V2000
    3.5013    0.7188    2.7884 C   0  0  0  0  0  0  0  0  0  0  0  0
    4.5995   -0.3171    2.7281 C   0  0  0  0  0  0  0  0  0  0  0  0
    4.8074   -1.0687    3.9380 C   0  0  0  0  0  0  0  0  0  0  0  0
    4.9503   -1.6580    4.9296 N   0  0  0  0  0  0  0  0  0  0  0  0
    5.3899   -0.5982    1.6639 C   0  0  0  0  0  0  0  0  0  0  0  0
    5.3443    0.0493    0.3422 C   0  0  2  0  0  0  0  0  0  0  0  0
    4.5476    0.7823    0.1949 H   0  0  0  0  0  0  0  0  0  0  0  0
    5.6176   -0.7681   -0.9218 C   0  0  1  0  0  0  0  0  0  0  0  0
    5.9786   -1.7917   -0.7973 H   0  0  0  0  0  0  0  0  0  0  0  0
    4.7116   -0.5889   -2.0892 C   0  0  0  0  0  0  0  0  0  0  0  0
    3.9740    0.3499   -2.2770 O   0  0  0  0  0  0  0  0  0  0  0  0
    4.8319   -1.6345   -2.9418 O   0  0  0  0  0  0  0  0  0  0  0  0
    4.1122   -1.5758   -4.1830 C   0  0  0  0  0  0  0  0  0  0  0  0
    5.0674   -1.8004   -5.3254 C   0  0  0  0  0  0  0  0  0  0  0  0
    4.9889   -2.9305   -6.1452 C   0  0  0  0  0  0  0  0  0  0  0  0
    4.0338   -3.8422   -5.9386 F   0  0  0  0  0  0  0  0  0  0  0  0
    5.8861   -3.1235   -7.1974 C   0  0  0  0  0  0  0  0  0  0  0  0
    5.7591   -4.2167   -7.9588 F   0  0  0  0  0  0  0  0  0  0  0  0
    6.9204   -2.2190   -7.4623 C   0  0  0  0  0  0  0  0  0  0  0  0
    7.8679   -2.4310   -8.6170 C   0  0  0  0  0  0  0  0  0  0  0  0
    7.2894   -1.9662   -9.9677 C   0  0  0  0  0  0  0  0  0  0  0  0
    7.0352   -0.5837  -10.0190 O   0  0  0  0  0  0  0  0  0  0  0  0
    6.9962   -1.0882   -6.6385 C   0  0  0  0  0  0  0  0  0  0  0  0
    7.9614   -0.1856   -6.8313 F   0  0  0  0  0  0  0  0  0  0  0  0
    6.0946   -0.8895   -5.5917 C   0  0  0  0  0  0  0  0  0  0  0  0
    6.2167    0.2031   -4.8304 F   0  0  0  0  0  0  0  0  0  0  0  0
    6.5852    0.3316   -0.4921 C   0  0  1  0  0  0  0  0  0  0  0  0
    6.6307    1.6418   -1.2601 C   0  0  0  0  0  0  0  0  0  0  0  0
    7.9492   -0.1246   -0.0005 C   0  0  0  0  0  0  0  0  0  0  0  0
    3.7063    1.4557    3.5822 H   0  0  0  0  0  0  0  0  0  0  0  0
    2.5354    0.2466    3.0314 H   0  0  0  0  0  0  0  0  0  0  0  0
    3.3904    1.2581    1.8394 H   0  0  0  0  0  0  0  0  0  0  0  0
    6.1368   -1.3859    1.7970 H   0  0  0  0  0  0  0  0  0  0  0  0
    3.6215   -0.5949   -4.2585 H   0  0  0  0  0  0  0  0  0  0  0  0
    3.3464   -2.3623   -4.1715 H   0  0  0  0  0  0  0  0  0  0  0  0
    8.1112   -3.5028   -8.6915 H   0  0  0  0  0  0  0  0  0  0  0  0
    8.8003   -1.8813   -8.4247 H   0  0  0  0  0  0  0  0  0  0  0  0
    6.3874   -2.5645  -10.2053 H   0  0  0  0  0  0  0  0  0  0  0  0
    8.0321   -2.1761  -10.7540 H   0  0  0  0  0  0  0  0  0  0  0  0
    6.2943   -0.3821   -9.4326 H   0  0  0  0  0  0  0  0  0  0  0  0
    5.6353    1.9626   -1.5926 H   0  0  0  0  0  0  0  0  0  0  0  0
    7.2683    1.5405   -2.1541 H   0  0  0  0  0  0  0  0  0  0  0  0
    7.0618    2.4335   -0.6257 H   0  0  0  0  0  0  0  0  0  0  0  0
    7.9255   -1.1104    0.4852 H   0  0  0  0  0  0  0  0  0  0  0  0
    8.3617    0.5987    0.7220 H   0  0  0  0  0  0  0  0  0  0  0  0
    8.6522   -0.1898   -0.8468 H   0  0  0  0  0  0  0  0  0  0  0  0
  1  2  1  0
  1 30  1  0
  1 31  1  0
  1 32  1  0
  2  3  1  0
  2  5  2  0
  3  4  3  0
  5  6  1  0
  5 33  1  0
  6  7  1  6
  6  8  1  0
  6 27  1  0
  8  9  1  1
  8 10  1  0
  8 27  1  0
 10 11  2  0
 10 12  1  0
 12 13  1  0
 13 14  1  0
 13 34  1  0
 13 35  1  0
 14 15  2  0
 14 25  1  0
 15 16  1  0
 15 17  1  0
 17 18  1  0
 17 19  2  0
 19 20  1  0
 19 23  1  0
 20 21  1  0
 20 36  1  0
 20 37  1  0
 21 22  1  0
 21 38  1  0
 21 39  1  0
 22 40  1  0
 23 24  1  0
 23 25  2  0
 25 26  1  0
 27 28  1  6
 27 29  1  0
 28 41  1  0
 28 42  1  0
 28 43  1  0
 29 44  1  0
 29 45  1  0
 29 46  1  0
M  END

