
     RDKit          3D

 44 45  0  0  0  0  0  0  0  0999 V2000
    1.0542    0.7361   -1.4510 C   0  0  0  0  0  0  0  0  0  0  0  0
    2.2202    0.2928   -0.8158 O   0  0  0  0  0  0  0  0  0  0  0  0
    2.8724    1.2812   -0.0560 C   0  0  0  0  0  0  0  0  0  0  0  0
    4.1057    0.6533    0.5970 C   0  0  0  0  0  0  0  0  0  0  0  0
    4.8303    1.5694    1.4603 N   0  0  0  0  0  0  0  0  0  0  0  0
    4.4322    1.5685    2.8530 C   0  0  0  0  0  0  0  0  0  0  0  0
    4.9464    0.4385    3.7557 C   0  0  0  0  0  0  0  0  0  0  0  0
    5.7561   -0.5778    3.2293 C   0  0  0  0  0  0  0  0  0  0  0  0
    6.2371   -1.6208    4.0275 C   0  0  0  0  0  0  0  0  0  0  0  0
    5.9176   -1.6624    5.3843 C   0  0  0  0  0  0  0  0  0  0  0  0
    5.1222   -0.6479    5.9216 C   0  0  0  0  0  0  0  0  0  0  0  0
    4.6201    0.4109    5.1390 C   0  0  0  0  0  0  0  0  0  0  0  0
    3.7198    1.4814    5.8682 B   0  0  0  0  0  0  0  0  0  0  0  0
    3.9060    1.8080    7.1877 O   0  0  0  0  0  0  0  0  0  0  0  0
    2.6941    2.1003    5.2162 O   0  0  0  0  0  0  0  0  0  0  0  0
    6.1677    1.9993    1.0203 C   0  0  1  0  0  0  0  0  0  0  0  0
    6.0685    2.8235   -0.2724 C   0  0  0  0  0  0  0  0  0  0  0  0
    6.9308    2.7074    2.1380 C   0  0  1  0  0  0  0  0  0  0  0  0
    8.0485    3.6881    1.8852 C   0  0  0  0  0  0  0  0  0  0  0  0
    6.7496    4.1657    2.4839 C   0  0  0  0  0  0  0  0  0  0  0  0
    0.6282   -0.1106   -2.0100 H   0  0  0  0  0  0  0  0  0  0  0  0
    1.2547    1.5624   -2.1646 H   0  0  0  0  0  0  0  0  0  0  0  0
    0.2946    1.0959   -0.7261 H   0  0  0  0  0  0  0  0  0  0  0  0
    2.1978    1.6849    0.7287 H   0  0  0  0  0  0  0  0  0  0  0  0
    3.1693    2.1408   -0.6920 H   0  0  0  0  0  0  0  0  0  0  0  0
    4.7655    0.2717   -0.2013 H   0  0  0  0  0  0  0  0  0  0  0  0
    3.7661   -0.2404    1.1519 H   0  0  0  0  0  0  0  0  0  0  0  0
    3.3316    1.5516    2.8926 H   0  0  0  0  0  0  0  0  0  0  0  0
    4.6969    2.5314    3.3134 H   0  0  0  0  0  0  0  0  0  0  0  0
    6.0179   -0.5547    2.1707 H   0  0  0  0  0  0  0  0  0  0  0  0
    6.8617   -2.4007    3.5834 H   0  0  0  0  0  0  0  0  0  0  0  0
    6.2812   -2.4750    6.0183 H   0  0  0  0  0  0  0  0  0  0  0  0
    4.8666   -0.6965    6.9861 H   0  0  0  0  0  0  0  0  0  0  0  0
    4.6858    1.3954    7.5771 H   0  0  0  0  0  0  0  0  0  0  0  0
    2.2214    2.7105    5.7991 H   0  0  0  0  0  0  0  0  0  0  0  0
    6.7817    1.1036    0.7682 H   0  0  0  0  0  0  0  0  0  0  0  0
    5.5088    3.7582   -0.1098 H   0  0  0  0  0  0  0  0  0  0  0  0
    5.5415    2.2565   -1.0530 H   0  0  0  0  0  0  0  0  0  0  0  0
    7.0645    3.0659   -0.6734 H   0  0  0  0  0  0  0  0  0  0  0  0
    7.1033    2.0535    2.9984 H   0  0  0  0  0  0  0  0  0  0  0  0
    8.2753    3.9858    0.8586 H   0  0  0  0  0  0  0  0  0  0  0  0
    8.9290    3.6276    2.5311 H   0  0  0  0  0  0  0  0  0  0  0  0
    6.0931    4.7705    1.8524 H   0  0  0  0  0  0  0  0  0  0  0  0
    6.7290    4.4467    3.5410 H   0  0  0  0  0  0  0  0  0  0  0  0
  1  2  1  0
  1 21  1  0
  1 22  1  0
  1 23  1  0
  2  3  1  0
  3  4  1  0
  3 24  1  0
  3 25  1  0
  4  5  1  0
  4 26  1  0
  4 27  1  0
  5  6  1  0
  5 16  1  0
  6  7  1  0
  6 28  1  0
  6 29  1  0
  7  8  2  0
  7 12  1  0
  8  9  1  0
  8 30  1  0
  9 10  2  0
  9 31  1  0
 10 11  1  0
 10 32  1  0
 11 12  2  0
 11 33  1  0
 12 13  1  0
 13 14  1  0
 13 15  1  0
 14 34  1  0
 15 35  1  0
 16 17  1  0
 16 18  1  0
 16 36  1  6
 17 37  1  0
 17 38  1  0
 17 39  1  0
 18 19  1  0
 18 20  1  0
 18 40  1  1
 19 20  1  0
 19 41  1  0
 19 42  1  0
 20 43  1  0
 20 44  1  0
M  END

