
     RDKit          3D

 53 54  0  0  0  0  0  0  0  0999 V2000
    7.2148   -5.4291   -0.6454 C   0  0  0  0  0  0  0  0  0  0  0  0
    6.7772   -4.3569    0.3533 C   0  0  0  0  0  0  0  0  0  0  0  0
    6.4159   -3.0241   -0.3087 C   0  0  0  0  0  0  0  0  0  0  0  0
    6.0434   -1.8982    0.6617 C   0  0  0  0  0  0  0  0  0  0  0  0
    7.1002   -1.4674    1.5830 N   0  0  0  0  0  0  0  0  0  0  0  0
    8.2777   -0.8997    0.9099 C   0  0  0  0  0  0  0  0  0  0  0  0
    9.4387   -1.8653    0.6569 C   0  0  0  0  0  0  0  0  0  0  0  0
    6.5832   -0.6382    2.6733 C   0  0  0  0  0  0  0  0  0  0  0  0
    7.0588   -1.0350    4.1037 C   0  0  1  0  0  0  0  0  0  0  0  0
    6.4877   -0.1644    5.1463 N   0  0  0  0  0  0  0  0  0  0  0  0
    5.1068    0.2402    5.1268 C   0  0  1  0  0  0  0  0  0  0  0  0
    4.7035    1.4512    5.9150 C   0  0  0  0  0  0  0  0  0  0  0  0
    4.5998    1.4764    4.4049 C   0  0  0  0  0  0  0  0  0  0  0  0
    6.6218   -2.4871    4.4302 C   0  0  0  0  0  0  0  0  0  0  0  0
    7.3567   -3.3742    4.7823 O   0  0  0  0  0  0  0  0  0  0  0  0
    5.2831   -2.6438    4.3204 O   0  0  0  0  0  0  0  0  0  0  0  0
    4.7181   -3.8812    4.7976 C   0  0  0  0  0  0  0  0  0  0  0  0
    4.6900   -4.9582    3.7281 C   0  0  0  0  0  0  0  0  0  0  0  0
    8.5861   -1.0133    4.1983 C   0  0  1  0  0  0  0  0  0  0  0  0
    9.3893    0.2470    4.4085 C   0  0  0  0  0  0  0  0  0  0  0  0
    9.3249   -0.8084    5.4885 C   0  0  0  0  0  0  0  0  0  0  0  0
    7.4486   -6.3807   -0.1417 H   0  0  0  0  0  0  0  0  0  0  0  0
    8.1170   -5.1183   -1.1994 H   0  0  0  0  0  0  0  0  0  0  0  0
    6.4278   -5.6323   -1.3917 H   0  0  0  0  0  0  0  0  0  0  0  0
    7.5698   -4.1902    1.1008 H   0  0  0  0  0  0  0  0  0  0  0  0
    5.9043   -4.7187    0.9240 H   0  0  0  0  0  0  0  0  0  0  0  0
    5.5494   -3.1727   -0.9786 H   0  0  0  0  0  0  0  0  0  0  0  0
    7.2361   -2.6978   -0.9714 H   0  0  0  0  0  0  0  0  0  0  0  0
    5.1950   -2.2423    1.2743 H   0  0  0  0  0  0  0  0  0  0  0  0
    5.6702   -1.0347    0.0614 H   0  0  0  0  0  0  0  0  0  0  0  0
    8.6595   -0.0735    1.5279 H   0  0  0  0  0  0  0  0  0  0  0  0
    7.9748   -0.4340   -0.0536 H   0  0  0  0  0  0  0  0  0  0  0  0
    9.7950   -2.3137    1.5969 H   0  0  0  0  0  0  0  0  0  0  0  0
   10.2823   -1.3232    0.1977 H   0  0  0  0  0  0  0  0  0  0  0  0
    9.1678   -2.6878   -0.0190 H   0  0  0  0  0  0  0  0  0  0  0  0
    5.4864   -0.6850    2.6700 H   0  0  0  0  0  0  0  0  0  0  0  0
    6.8442    0.4291    2.5313 H   0  0  0  0  0  0  0  0  0  0  0  0
    7.0882    0.6384    5.3077 H   0  0  0  0  0  0  0  0  0  0  0  0
    4.4191   -0.6075    5.1583 H   0  0  0  0  0  0  0  0  0  0  0  0
    5.5007    2.0428    6.3786 H   0  0  0  0  0  0  0  0  0  0  0  0
    3.7879    1.4086    6.5117 H   0  0  0  0  0  0  0  0  0  0  0  0
    5.3300    2.0853    3.8632 H   0  0  0  0  0  0  0  0  0  0  0  0
    3.6070    1.4506    3.9440 H   0  0  0  0  0  0  0  0  0  0  0  0
    3.7003   -3.6160    5.1208 H   0  0  0  0  0  0  0  0  0  0  0  0
    5.2953   -4.2164    5.6719 H   0  0  0  0  0  0  0  0  0  0  0  0
    4.1300   -4.6236    2.8410 H   0  0  0  0  0  0  0  0  0  0  0  0
    4.1962   -5.8605    4.1239 H   0  0  0  0  0  0  0  0  0  0  0  0
    5.7102   -5.2301    3.4226 H   0  0  0  0  0  0  0  0  0  0  0  0
    9.0274   -1.7505    3.5266 H   0  0  0  0  0  0  0  0  0  0  0  0
    8.8715    1.1974    4.5791 H   0  0  0  0  0  0  0  0  0  0  0  0
   10.3162    0.3633    3.8390 H   0  0  0  0  0  0  0  0  0  0  0  0
    8.7343   -0.5905    6.3814 H   0  0  0  0  0  0  0  0  0  0  0  0
   10.2088   -1.4247    5.6726 H   0  0  0  0  0  0  0  0  0  0  0  0
  1  2  1  0
  1 22  1  0
  1 23  1  0
  1 24  1  0
  2  3  1  0
  2 25  1  0
  2 26  1  0
  3  4  1  0
  3 27  1  0
  3 28  1  0
  4  5  1  0
  4 29  1  0
  4 30  1  0
  5  6  1  0
  5  8  1  0
  6  7  1  0
  6 31  1  0
  6 32  1  0
  7 33  1  0
  7 34  1  0
  7 35  1  0
  8  9  1  0
  8 36  1  0
  8 37  1  0
  9 10  1  0
  9 14  1  1
  9 19  1  0
 10 11  1  0
 10 38  1  0
 11 12  1  0
 11 13  1  0
 11 39  1  1
 12 13  1  0
 12 40  1  0
 12 41  1  0
 13 42  1  0
 13 43  1  0
 14 15  2  0
 14 16  1  0
 16 17  1  0
 17 18  1  0
 17 44  1  0
 17 45  1  0
 18 46  1  0
 18 47  1  0
 18 48  1  0
 19 20  1  0
 19 21  1  0
 19 49  1  6
 20 21  1  0
 20 50  1  0
 20 51  1  0
 21 52  1  0
 21 53  1  0
M  END

