
     RDKit          3D

 41 44  0  0  0  0  0  0  0  0999 V2000
    1.5528   -2.0274   -0.0312 C   0  0  0  0  0  0  0  0  0  0  0  0
    2.6280   -1.5415    0.0039 N   0  0  0  0  0  0  0  0  0  0  0  0
    3.9344   -1.1078    0.0630 C   0  0  0  0  0  0  0  0  0  0  0  0
    4.9461   -2.0907    0.2880 C   0  0  0  0  0  0  0  0  0  0  0  0
    4.6233   -3.3909    0.4688 N   0  0  0  0  0  0  0  0  0  0  0  0
    6.2418   -1.7644    0.3223 N   0  0  0  0  0  0  0  0  0  0  0  0
    6.6149   -0.5036    0.1488 C   0  0  0  0  0  0  0  0  0  0  0  0
    8.3350   -0.1082    0.2017 S   0  0  0  0  0  0  0  0  0  0  0  0
    9.0671   -1.7696    0.5288 C   0  0  0  0  0  0  0  0  0  0  0  0
   10.5619   -1.6589    0.5357 C   0  0  0  0  0  0  0  0  0  0  0  0
   11.3483   -1.5641    1.6607 C   0  0  0  0  0  0  0  0  0  0  0  0
   13.0116   -1.4480    1.2183 S   0  0  0  0  0  0  0  0  0  0  0  0
   12.5371   -1.5317   -0.4799 C   0  0  0  0  0  0  0  0  0  0  0  0
   13.5151   -1.4880   -1.5763 C   0  0  0  0  0  0  0  0  0  0  0  0
   14.9004   -1.4112   -1.3473 C   0  0  0  0  0  0  0  0  0  0  0  0
   15.8026   -1.3712   -2.4090 C   0  0  0  0  0  0  0  0  0  0  0  0
   15.3204   -1.4084   -3.7211 C   0  0  0  0  0  0  0  0  0  0  0  0
   16.4445   -1.3594   -5.0560 Cl  0  0  0  0  0  0  0  0  0  0  0  0
   13.9459   -1.4842   -3.9736 C   0  0  0  0  0  0  0  0  0  0  0  0
   13.0530   -1.5235   -2.9061 C   0  0  0  0  0  0  0  0  0  0  0  0
   11.2470   -1.6363   -0.6501 N   0  0  0  0  0  0  0  0  0  0  0  0
    5.6854    0.5554   -0.0729 C   0  0  0  0  0  0  0  0  0  0  0  0
    6.1748    1.8950   -0.1852 C   0  0  0  0  0  0  0  0  0  0  0  0
    6.6495    2.9544   -0.2323 N   0  0  0  0  0  0  0  0  0  0  0  0
    4.3068    0.2356   -0.1238 C   0  0  0  0  0  0  0  0  0  0  0  0
    3.3193    1.3012   -0.3843 C   0  0  0  0  0  0  0  0  0  0  0  0
    3.5189    2.2541   -1.2542 N   0  0  0  0  0  0  0  0  0  0  0  0
    2.4911    3.1475   -1.2723 C   0  0  0  0  0  0  0  0  0  0  0  0
    1.4719    2.8934   -0.3867 C   0  0  0  0  0  0  0  0  0  0  0  0
    1.8069    1.4577    0.5022 S   0  0  0  0  0  0  0  0  0  0  0  0
    3.6657   -3.7097    0.4219 H   0  0  0  0  0  0  0  0  0  0  0  0
    5.3732   -4.0594    0.5837 H   0  0  0  0  0  0  0  0  0  0  0  0
    8.7354   -2.4486   -0.2672 H   0  0  0  0  0  0  0  0  0  0  0  0
    8.6804   -2.1360    1.4882 H   0  0  0  0  0  0  0  0  0  0  0  0
   11.0360   -1.5542    2.7034 H   0  0  0  0  0  0  0  0  0  0  0  0
   15.2895   -1.3827   -0.3261 H   0  0  0  0  0  0  0  0  0  0  0  0
   16.8765   -1.3117   -2.2259 H   0  0  0  0  0  0  0  0  0  0  0  0
   13.5846   -1.5103   -5.0030 H   0  0  0  0  0  0  0  0  0  0  0  0
   11.9781   -1.5804   -3.0837 H   0  0  0  0  0  0  0  0  0  0  0  0
    2.5223    3.9939   -1.9603 H   0  0  0  0  0  0  0  0  0  0  0  0
    0.5598    3.4637   -0.2186 H   0  0  0  0  0  0  0  0  0  0  0  0
  1  2  2  0
  2  3  2  0
  3  4  1  0
  3 25  1  0
  4  5  2  0
  4  6  1  0
  5 31  1  0
  5 32  1  0
  6  7  2  0
  7  8  1  0
  7 22  1  0
  8  9  1  0
  9 10  1  0
  9 33  1  0
  9 34  1  0
 10 11  2  0
 10 21  1  0
 11 12  1  0
 11 35  1  0
 12 13  1  0
 13 14  1  0
 13 21  2  0
 14 15  2  0
 14 20  1  0
 15 16  1  0
 15 36  1  0
 16 17  2  0
 16 37  1  0
 17 18  1  0
 17 19  1  0
 19 20  2  0
 19 38  1  0
 20 39  1  0
 22 23  1  0
 22 25  2  0
 23 24  3  0
 25 26  1  0
 26 27  2  0
 26 30  1  0
 27 28  1  0
 28 29  2  0
 28 40  1  0
 29 30  1  0
 29 41  1  0
M  CHG  3   1  -2   2   1   5   1
M  END

