
     RDKit          3D

 85 85  0  0  0  0  0  0  0  0999 V2000
   14.2902   -3.0261   -0.2630 C   0  0  0  0  0  0  0  0  0  0  0  0
   14.1643   -2.7095   -1.7536 C   0  0  0  0  0  0  0  0  0  0  0  0
   12.8197   -2.0811   -2.1329 C   0  0  0  0  0  0  0  0  0  0  0  0
   12.6925   -1.7823   -3.6294 C   0  0  0  0  0  0  0  0  0  0  0  0
   11.3515   -1.1925   -4.0462 C   0  0  0  0  0  0  0  0  0  0  0  0
   11.0621    0.0473   -3.3688 O   0  0  0  0  0  0  0  0  0  0  0  0
   11.5952    1.1501   -3.8875 C   0  0  0  0  0  0  0  0  0  0  0  0
   12.2778    1.2316   -4.8719 O   0  0  0  0  0  0  0  0  0  0  0  0
   11.2135    2.1885   -3.1030 O   0  0  0  0  0  0  0  0  0  0  0  0
   11.7515    3.4364   -3.3678 C   0  0  0  0  0  0  0  0  0  0  0  0
   11.2491    4.2542   -4.3742 C   0  0  0  0  0  0  0  0  0  0  0  0
   11.7898    5.5290   -4.5595 C   0  0  0  0  0  0  0  0  0  0  0  0
   12.8354    6.0021   -3.7515 C   0  0  0  0  0  0  0  0  0  0  0  0
   13.3971    7.3950   -3.9650 C   0  0  0  0  0  0  0  0  0  0  0  0
   13.1124    8.4143   -2.8277 C   0  0  2  0  0  0  0  0  0  0  0  0
   12.2311    8.0674   -2.2585 H   0  0  0  0  0  0  0  0  0  0  0  0
   12.8167    9.7802   -3.2685 N   0  0  0  0  0  0  0  0  0  0  0  0
   11.4385   10.0328   -3.6763 C   0  0  0  0  0  0  0  0  0  0  0  0
   11.2646   11.3745   -4.3881 C   0  0  1  0  0  0  0  0  0  0  0  0
    9.8094   11.6632   -4.7264 C   0  0  0  0  0  0  0  0  0  0  0  0
   11.7298   12.4603   -3.5573 O   0  0  0  0  0  0  0  0  0  0  0  0
   12.9926   12.9106   -3.7310 C   0  0  0  0  0  0  0  0  0  0  0  0
   13.7822   12.4005   -4.4937 O   0  0  0  0  0  0  0  0  0  0  0  0
   13.2807   14.0949   -2.8385 C   0  0  0  0  0  0  0  0  0  0  0  0
   13.8213   13.6886   -1.4435 C   0  0  1  0  0  0  0  0  0  0  0  0
   15.2032   13.0305   -1.5285 C   0  0  0  0  0  0  0  0  0  0  0  0
   13.8423   14.9087   -0.5152 C   0  0  0  0  0  0  0  0  0  0  0  0
   14.2535    8.4803   -1.7831 C   0  0  0  0  0  0  0  0  0  0  0  0
   14.9697    7.5518   -1.5069 O   0  0  0  0  0  0  0  0  0  0  0  0
   14.3381    9.6707   -1.1903 O   0  0  0  0  0  0  0  0  0  0  0  0
   13.3347    5.1633   -2.7415 C   0  0  0  0  0  0  0  0  0  0  0  0
   12.7957    3.8947   -2.5566 C   0  0  0  0  0  0  0  0  0  0  0  0
   13.3323    3.0443   -1.6048 O   0  0  0  0  0  0  0  0  0  0  0  0
   12.6543    2.9045   -0.4380 C   0  0  0  0  0  0  0  0  0  0  0  0
   11.6809    3.5268   -0.1147 O   0  0  0  0  0  0  0  0  0  0  0  0
   13.2770    1.9697    0.2755 O   0  0  0  0  0  0  0  0  0  0  0  0
   12.7303    1.6971    1.5803 C   0  0  0  0  0  0  0  0  0  0  0  0
   13.6996    0.7979    2.3260 C   0  0  0  0  0  0  0  0  0  0  0  0
   15.0567    1.4428    2.6216 C   0  0  0  0  0  0  0  0  0  0  0  0
   16.0243    0.5177    3.3655 C   0  0  0  0  0  0  0  0  0  0  0  0
   17.3783    1.1644    3.6605 C   0  0  0  0  0  0  0  0  0  0  0  0
   15.2696   -3.4703   -0.0244 H   0  0  0  0  0  0  0  0  0  0  0  0
   13.5132   -3.7376    0.0639 H   0  0  0  0  0  0  0  0  0  0  0  0
   14.1803   -2.1152    0.3490 H   0  0  0  0  0  0  0  0  0  0  0  0
   14.3126   -3.6348   -2.3403 H   0  0  0  0  0  0  0  0  0  0  0  0
   14.9796   -2.0285   -2.0572 H   0  0  0  0  0  0  0  0  0  0  0  0
   12.6775   -1.1473   -1.5613 H   0  0  0  0  0  0  0  0  0  0  0  0
   11.9992   -2.7556   -1.8227 H   0  0  0  0  0  0  0  0  0  0  0  0
   12.8290   -2.7128   -4.2105 H   0  0  0  0  0  0  0  0  0  0  0  0
   13.4963   -1.1002   -3.9543 H   0  0  0  0  0  0  0  0  0  0  0  0
   10.5204   -1.8548   -3.7622 H   0  0  0  0  0  0  0  0  0  0  0  0
   11.3219   -1.0194   -5.1320 H   0  0  0  0  0  0  0  0  0  0  0  0
   10.4388    3.8863   -5.0059 H   0  0  0  0  0  0  0  0  0  0  0  0
   11.3922    6.1632   -5.3567 H   0  0  0  0  0  0  0  0  0  0  0  0
   12.9609    7.8014   -4.8908 H   0  0  0  0  0  0  0  0  0  0  0  0
   14.4863    7.3386   -4.1226 H   0  0  0  0  0  0  0  0  0  0  0  0
   13.4691   10.0891   -3.9925 H   0  0  0  0  0  0  0  0  0  0  0  0
   10.7949   10.0059   -2.7792 H   0  0  0  0  0  0  0  0  0  0  0  0
   11.0533    9.2543   -4.3672 H   0  0  0  0  0  0  0  0  0  0  0  0
   11.8779   11.3731   -5.3033 H   0  0  0  0  0  0  0  0  0  0  0  0
    9.1972   11.7154   -3.8126 H   0  0  0  0  0  0  0  0  0  0  0  0
    9.3993   10.8753   -5.3764 H   0  0  0  0  0  0  0  0  0  0  0  0
    9.7232   12.6243   -5.2538 H   0  0  0  0  0  0  0  0  0  0  0  0
   12.3526   14.6727   -2.7157 H   0  0  0  0  0  0  0  0  0  0  0  0
   14.0245   14.7234   -3.3530 H   0  0  0  0  0  0  0  0  0  0  0  0
   13.1098   12.9560   -1.0194 H   0  0  0  0  0  0  0  0  0  0  0  0
   15.9520   13.7445   -1.9118 H   0  0  0  0  0  0  0  0  0  0  0  0
   15.2088   12.1568   -2.1955 H   0  0  0  0  0  0  0  0  0  0  0  0
   15.5361   12.6906   -0.5355 H   0  0  0  0  0  0  0  0  0  0  0  0
   14.5129   15.6917   -0.9086 H   0  0  0  0  0  0  0  0  0  0  0  0
   14.2058   14.6330    0.4875 H   0  0  0  0  0  0  0  0  0  0  0  0
   12.8395   15.3512   -0.4012 H   0  0  0  0  0  0  0  0  0  0  0  0
   13.6958   10.2341   -1.6922 H   0  0  0  0  0  0  0  0  0  0  0  0
   14.1453    5.5038   -2.0952 H   0  0  0  0  0  0  0  0  0  0  0  0
   11.7455    1.2184    1.4550 H   0  0  0  0  0  0  0  0  0  0  0  0
   12.5701    2.6526    2.1052 H   0  0  0  0  0  0  0  0  0  0  0  0
   13.8418   -0.1307    1.7455 H   0  0  0  0  0  0  0  0  0  0  0  0
   13.2098    0.4993    3.2700 H   0  0  0  0  0  0  0  0  0  0  0  0
   14.8997    2.3632    3.2147 H   0  0  0  0  0  0  0  0  0  0  0  0
   15.5142    1.7682    1.6714 H   0  0  0  0  0  0  0  0  0  0  0  0
   16.1763   -0.4009    2.7699 H   0  0  0  0  0  0  0  0  0  0  0  0
   15.5585    0.1867    4.3120 H   0  0  0  0  0  0  0  0  0  0  0  0
   17.8841    1.4747    2.7311 H   0  0  0  0  0  0  0  0  0  0  0  0
   18.0510    0.4716    4.1909 H   0  0  0  0  0  0  0  0  0  0  0  0
   17.2647    2.0641    4.2883 H   0  0  0  0  0  0  0  0  0  0  0  0
  1  2  1  0
  1 42  1  0
  1 43  1  0
  1 44  1  0
  2  3  1  0
  2 45  1  0
  2 46  1  0
  3  4  1  0
  3 47  1  0
  3 48  1  0
  4  5  1  0
  4 49  1  0
  4 50  1  0
  5  6  1  0
  5 51  1  0
  5 52  1  0
  6  7  1  0
  7  8  2  0
  7  9  1  0
  9 10  1  0
 10 11  2  0
 10 32  1  0
 11 12  1  0
 11 53  1  0
 12 13  2  0
 12 54  1  0
 13 14  1  0
 13 31  1  0
 14 15  1  0
 14 55  1  0
 14 56  1  0
 15 16  1  1
 15 17  1  0
 15 28  1  0
 17 18  1  0
 17 57  1  0
 18 19  1  0
 18 58  1  0
 18 59  1  0
 19 20  1  0
 19 21  1  0
 19 60  1  6
 20 61  1  0
 20 62  1  0
 20 63  1  0
 21 22  1  0
 22 23  2  0
 22 24  1  0
 24 25  1  0
 24 64  1  0
 24 65  1  0
 25 26  1  0
 25 27  1  0
 25 66  1  1
 26 67  1  0
 26 68  1  0
 26 69  1  0
 27 70  1  0
 27 71  1  0
 27 72  1  0
 28 29  2  0
 28 30  1  0
 30 73  1  0
 31 32  2  0
 31 74  1  0
 32 33  1  0
 33 34  1  0
 34 35  2  0
 34 36  1  0
 36 37  1  0
 37 38  1  0
 37 75  1  0
 37 76  1  0
 38 39  1  0
 38 77  1  0
 38 78  1  0
 39 40  1  0
 39 79  1  0
 39 80  1  0
 40 41  1  0
 40 81  1  0
 40 82  1  0
 41 83  1  0
 41 84  1  0
 41 85  1  0
M  END

