
     RDKit          3D

 31 32  0  0  0  0  0  0  0  0999 V2000
    2.7036   -1.3078    0.6488 N   0  0  0  0  0  0  0  0  0  0  0  0
    2.2488   -0.0877    0.2697 C   0  0  0  0  0  0  0  0  0  0  0  0
    1.2029    0.0912   -0.3287 O   0  0  0  0  0  0  0  0  0  0  0  0
    3.1877    1.0813    0.6615 C   0  0  1  0  0  0  0  0  0  0  0  0
    2.7836    2.4159    0.0118 C   0  0  0  0  0  0  0  0  0  0  0  0
    3.0151    3.4728    1.0987 C   0  0  0  0  0  0  0  0  0  0  0  0
    2.6285    2.7277    2.3773 C   0  0  0  0  0  0  0  0  0  0  0  0
    3.1005    1.3432    2.1353 N   0  0  0  0  0  0  0  0  0  0  0  0
    4.3326    0.7677    3.1120 S   0  0  1  0  0  0  0  0  0  0  0  0
    4.8510   -0.4371    2.4461 O   0  0  0  0  0  0  0  0  0  0  0  0
    5.2673    1.8137    3.5378 O   0  0  0  0  0  0  0  0  0  0  0  0
    3.4545    0.2891    4.5789 C   0  0  0  0  0  0  0  0  0  0  0  0
    3.8485    0.6046    5.8555 C   0  0  0  0  0  0  0  0  0  0  0  0
    3.0063    0.0052    6.8441 C   0  0  0  0  0  0  0  0  0  0  0  0
    3.1005    0.1284    8.3339 C   0  0  0  0  0  0  0  0  0  0  0  0
    2.2663   -0.3171    9.0756 O   0  0  0  0  0  0  0  0  0  0  0  0
    4.1836    0.7703    8.8210 O   0  0  0  0  0  0  0  0  0  0  0  0
    1.9970   -0.7449    6.2726 C   0  0  0  0  0  0  0  0  0  0  0  0
    2.0545   -0.7426    4.5590 S   0  0  0  0  0  0  0  0  0  0  0  0
    2.1149   -2.1135    0.4732 H   0  0  0  0  0  0  0  0  0  0  0  0
    3.5461   -1.3992    1.2112 H   0  0  0  0  0  0  0  0  0  0  0  0
    4.2190    0.7978    0.4020 H   0  0  0  0  0  0  0  0  0  0  0  0
    1.7211    2.3527   -0.2660 H   0  0  0  0  0  0  0  0  0  0  0  0
    3.3570    2.6051   -0.9071 H   0  0  0  0  0  0  0  0  0  0  0  0
    2.4222    4.3868    0.9446 H   0  0  0  0  0  0  0  0  0  0  0  0
    4.0784    3.7591    1.1517 H   0  0  0  0  0  0  0  0  0  0  0  0
    1.5357    2.7113    2.5235 H   0  0  0  0  0  0  0  0  0  0  0  0
    3.0944    3.1387    3.2831 H   0  0  0  0  0  0  0  0  0  0  0  0
    4.7059    1.2567    6.0324 H   0  0  0  0  0  0  0  0  0  0  0  0
    4.7982    1.0195    8.1176 H   0  0  0  0  0  0  0  0  0  0  0  0
    1.2208   -1.2843    6.8150 H   0  0  0  0  0  0  0  0  0  0  0  0
  1  2  1  0
  1 20  1  0
  1 21  1  0
  2  3  2  0
  2  4  1  0
  4  5  1  0
  4  8  1  0
  4 22  1  1
  5  6  1  0
  5 23  1  0
  5 24  1  0
  6  7  1  0
  6 25  1  0
  6 26  1  0
  7  8  1  0
  7 27  1  0
  7 28  1  0
  8  9  1  0
  9 10  2  0
  9 11  2  0
  9 12  1  1
 12 13  2  0
 12 19  1  0
 13 14  1  0
 13 29  1  0
 14 15  1  0
 14 18  2  0
 15 16  2  0
 15 17  1  0
 17 30  1  0
 18 19  1  0
 18 31  1  0
M  END

