
     RDKit          3D

 33 34  0  0  0  0  0  0  0  0999 V2000
    4.1474   -1.2662   -1.1015 C   0  0  0  0  0  0  0  0  0  0  0  0
    2.9328   -0.2491   -0.2515 S   0  0  1  0  0  0  0  0  0  0  0  0
    1.6088   -0.6849   -0.7050 O   0  0  0  0  0  0  0  0  0  0  0  0
    3.2898   -0.2448    1.1709 O   0  0  0  0  0  0  0  0  0  0  0  0
    3.2206    1.3015   -0.8703 N   0  0  0  0  0  0  0  0  0  0  0  0
    2.2362    1.8753   -1.7989 C   0  0  0  0  0  0  0  0  0  0  0  0
    1.1965    2.7232   -1.0628 C   0  0  0  0  0  0  0  0  0  0  0  0
    1.8545    3.7081   -0.2044 N   0  0  0  0  0  0  0  0  0  0  0  0
    1.5227    5.0323   -0.3251 C   0  0  0  0  0  0  0  0  0  0  0  0
    0.7095    5.4393   -1.1413 O   0  0  0  0  0  0  0  0  0  0  0  0
    2.2229    6.0055    0.6200 C   0  0  0  0  0  0  0  0  0  0  0  0
    1.5814    7.6805    0.2553 S   0  0  0  0  0  0  0  0  0  0  0  0
    2.5507    8.5544    1.4277 C   0  0  0  0  0  0  0  0  0  0  0  0
    3.4394    8.0281    2.2294 N   0  0  0  0  0  0  0  0  0  0  0  0
    4.0468    8.9431    3.0331 N   0  0  0  0  0  0  0  0  0  0  0  0
    3.6218   10.1510    2.8422 C   0  0  0  0  0  0  0  0  0  0  0  0
    2.3865   10.2959    1.6121 S   0  0  0  0  0  0  0  0  0  0  0  0
    2.8082    3.1410    0.7443 C   0  0  0  0  0  0  0  0  0  0  0  0
    3.8519    2.2898    0.0087 C   0  0  0  0  0  0  0  0  0  0  0  0
    4.0063   -2.2919   -0.7336 H   0  0  0  0  0  0  0  0  0  0  0  0
    5.1516   -0.9008   -0.8523 H   0  0  0  0  0  0  0  0  0  0  0  0
    3.9590   -1.2134   -2.1812 H   0  0  0  0  0  0  0  0  0  0  0  0
    1.7389    1.0646   -2.3457 H   0  0  0  0  0  0  0  0  0  0  0  0
    2.7866    2.4979   -2.5257 H   0  0  0  0  0  0  0  0  0  0  0  0
    0.5655    2.0578   -0.4465 H   0  0  0  0  0  0  0  0  0  0  0  0
    0.5529    3.2667   -1.7657 H   0  0  0  0  0  0  0  0  0  0  0  0
    3.3146    6.0056    0.4875 H   0  0  0  0  0  0  0  0  0  0  0  0
    2.0318    5.7690    1.6771 H   0  0  0  0  0  0  0  0  0  0  0  0
    3.9911   11.0179    3.3931 H   0  0  0  0  0  0  0  0  0  0  0  0
    2.2769    2.4957    1.4678 H   0  0  0  0  0  0  0  0  0  0  0  0
    3.3110    3.9335    1.3116 H   0  0  0  0  0  0  0  0  0  0  0  0
    4.4916    1.7753    0.7366 H   0  0  0  0  0  0  0  0  0  0  0  0
    4.4884    2.9394   -0.6181 H   0  0  0  0  0  0  0  0  0  0  0  0
  2  1  1  6
  1 20  1  0
  1 21  1  0
  1 22  1  0
  2  3  2  0
  2  4  2  0
  2  5  1  0
  5  6  1  0
  5 19  1  0
  6  7  1  0
  6 23  1  0
  6 24  1  0
  7  8  1  0
  7 25  1  0
  7 26  1  0
  8  9  1  0
  8 18  1  0
  9 10  2  0
  9 11  1  0
 11 12  1  0
 11 27  1  0
 11 28  1  0
 12 13  1  0
 13 14  2  0
 13 17  1  0
 14 15  1  0
 15 16  2  0
 16 17  1  0
 16 29  1  0
 18 19  1  0
 18 30  1  0
 18 31  1  0
 19 32  1  0
 19 33  1  0
M  END

