
     RDKit          3D

 29 30  0  0  0  0  0  0  0  0999 V2000
    2.8797   -1.4032    0.7663 C   0  0  0  0  0  0  0  0  0  0  0  0
    2.4227   -0.1065    0.0735 C   0  0  1  0  0  0  0  0  0  0  0  0
    3.0796   -0.0513   -1.3253 C   0  0  0  0  0  0  0  0  0  0  0  0
    0.8851   -0.1609   -0.0832 C   0  0  0  0  0  0  0  0  0  0  0  0
    2.8134    1.1526    0.8742 C   0  0  0  0  0  0  0  0  0  0  0  0
    3.4937    1.0934    2.1011 C   0  0  0  0  0  0  0  0  0  0  0  0
    3.8330    2.2572    2.8075 C   0  0  0  0  0  0  0  0  0  0  0  0
    3.4968    3.5100    2.3050 C   0  0  0  0  0  0  0  0  0  0  0  0
    2.8048    3.5785    1.0813 C   0  0  0  0  0  0  0  0  0  0  0  0
    2.4697    2.4251    0.3737 C   0  0  0  0  0  0  0  0  0  0  0  0
    2.4485    5.2475    0.5771 S   0  0  0  0  0  0  0  0  0  0  0  0
    2.8474    5.8694    2.2729 C   0  0  0  0  0  0  0  0  0  0  0  0
    3.8397    4.8661    2.8806 C   0  0  0  0  0  0  0  0  0  0  0  0
    2.5852   -2.2734    0.1588 H   0  0  0  0  0  0  0  0  0  0  0  0
    2.4196   -1.5231    1.7596 H   0  0  0  0  0  0  0  0  0  0  0  0
    3.9735   -1.4403    0.8886 H   0  0  0  0  0  0  0  0  0  0  0  0
    2.8091   -0.9439   -1.9134 H   0  0  0  0  0  0  0  0  0  0  0  0
    4.1777   -0.0165   -1.2446 H   0  0  0  0  0  0  0  0  0  0  0  0
    2.7584    0.8330   -1.8964 H   0  0  0  0  0  0  0  0  0  0  0  0
    0.5874   -1.0557   -0.6546 H   0  0  0  0  0  0  0  0  0  0  0  0
    0.4942    0.7193   -0.6159 H   0  0  0  0  0  0  0  0  0  0  0  0
    0.3896   -0.2040    0.8998 H   0  0  0  0  0  0  0  0  0  0  0  0
    3.7711    0.1312    2.5306 H   0  0  0  0  0  0  0  0  0  0  0  0
    4.3689    2.1739    3.7577 H   0  0  0  0  0  0  0  0  0  0  0  0
    1.9269    2.5178   -0.5692 H   0  0  0  0  0  0  0  0  0  0  0  0
    1.9124    5.9112    2.8539 H   0  0  0  0  0  0  0  0  0  0  0  0
    3.2541    6.8866    2.1892 H   0  0  0  0  0  0  0  0  0  0  0  0
    3.8001    4.8825    3.9818 H   0  0  0  0  0  0  0  0  0  0  0  0
    4.8720    5.1357    2.5890 H   0  0  0  0  0  0  0  0  0  0  0  0
  2  1  1  1
  1 14  1  0
  1 15  1  0
  1 16  1  0
  2  3  1  0
  2  4  1  0
  2  5  1  0
  3 17  1  0
  3 18  1  0
  3 19  1  0
  4 20  1  0
  4 21  1  0
  4 22  1  0
  5  6  2  0
  5 10  1  0
  6  7  1  0
  6 23  1  0
  7  8  2  0
  7 24  1  0
  8  9  1  0
  8 13  1  0
  9 10  2  0
  9 11  1  0
 10 25  1  0
 11 12  1  0
 12 13  1  0
 12 26  1  0
 12 27  1  0
 13 28  1  0
 13 29  1  0
M  END

