
     RDKit          3D

 49 52  0  0  0  0  0  0  0  0999 V2000
    5.3664   -0.3691   -0.3247 N   0  0  0  0  0  0  0  0  0  0  0  0
    4.0216    0.1665   -0.3363 C   0  0  1  0  0  0  0  0  0  0  0  0
    3.3693   -0.2681   -1.6213 C   0  0  0  0  0  0  0  0  0  0  0  0
    2.6748    0.5286   -2.3978 N   0  0  0  0  0  0  0  0  0  0  0  0
    2.2366   -0.3050   -3.4184 O   0  0  0  0  0  0  0  0  0  0  0  0
    2.7179   -1.5328   -3.1590 C   0  0  0  0  0  0  0  0  0  0  0  0
    2.4027   -2.5937   -4.0941 C   0  0  0  0  0  0  0  0  0  0  0  0
    2.8428   -3.8588   -3.9194 C   0  0  0  0  0  0  0  0  0  0  0  0
    2.5929   -5.0094   -4.7889 C   0  0  0  0  0  0  0  0  0  0  0  0
    1.8091   -4.9367   -5.9610 C   0  0  0  0  0  0  0  0  0  0  0  0
    1.6003   -6.0602   -6.7543 C   0  0  0  0  0  0  0  0  0  0  0  0
    2.1826   -7.2815   -6.3880 C   0  0  0  0  0  0  0  0  0  0  0  0
    1.9470   -8.7281   -7.4344 S   0  0  1  0  0  0  0  0  0  0  0  0
    2.1593   -9.9068   -6.5942 O   0  0  0  0  0  0  0  0  0  0  0  0
    0.7159   -8.5139   -8.1952 O   0  0  0  0  0  0  0  0  0  0  0  0
    3.1978   -8.7220   -8.5567 N   0  0  0  0  0  0  0  0  0  0  0  0
    4.5437   -9.0999   -8.1240 C   0  0  0  0  0  0  0  0  0  0  0  0
    5.3260   -9.5812   -9.3460 C   0  0  0  0  0  0  0  0  0  0  0  0
    5.3208   -8.6145  -10.3754 O   0  0  0  0  0  0  0  0  0  0  0  0
    4.0096   -8.3180  -10.8079 C   0  0  0  0  0  0  0  0  0  0  0  0
    3.1558   -7.7678   -9.6654 C   0  0  0  0  0  0  0  0  0  0  0  0
    2.9497   -7.3884   -5.2241 C   0  0  0  0  0  0  0  0  0  0  0  0
    3.1516   -6.2555   -4.4373 C   0  0  0  0  0  0  0  0  0  0  0  0
    3.4208   -1.5677   -2.0579 N   0  0  0  0  0  0  0  0  0  0  0  0
    3.0425   -0.0720    0.8816 C   0  0  0  0  0  0  0  0  0  0  0  0
    2.6420    1.4211    0.8148 C   0  0  0  0  0  0  0  0  0  0  0  0
    3.8885    1.6915   -0.0639 C   0  0  0  0  0  0  0  0  0  0  0  0
    5.3515   -1.3662   -0.5429 H   0  0  0  0  0  0  0  0  0  0  0  0
    5.7834   -0.2618    0.5990 H   0  0  0  0  0  0  0  0  0  0  0  0
    1.7869   -2.2965   -4.9458 H   0  0  0  0  0  0  0  0  0  0  0  0
    3.4554   -4.0522   -3.0329 H   0  0  0  0  0  0  0  0  0  0  0  0
    1.3457   -3.9921   -6.2526 H   0  0  0  0  0  0  0  0  0  0  0  0
    0.9697   -6.0076   -7.6433 H   0  0  0  0  0  0  0  0  0  0  0  0
    4.4644   -9.9069   -7.3831 H   0  0  0  0  0  0  0  0  0  0  0  0
    5.0726   -8.2398   -7.6649 H   0  0  0  0  0  0  0  0  0  0  0  0
    4.8867  -10.5333   -9.7064 H   0  0  0  0  0  0  0  0  0  0  0  0
    6.3774   -9.7609   -9.0753 H   0  0  0  0  0  0  0  0  0  0  0  0
    3.5233   -9.2252  -11.2202 H   0  0  0  0  0  0  0  0  0  0  0  0
    4.0943   -7.5703  -11.6108 H   0  0  0  0  0  0  0  0  0  0  0  0
    2.1141   -7.6510   -9.9934 H   0  0  0  0  0  0  0  0  0  0  0  0
    3.5498   -6.7780   -9.3568 H   0  0  0  0  0  0  0  0  0  0  0  0
    3.3607   -8.3561   -4.9321 H   0  0  0  0  0  0  0  0  0  0  0  0
    3.7469   -6.3340   -3.5240 H   0  0  0  0  0  0  0  0  0  0  0  0
    3.6298   -0.3094    1.7833 H   0  0  0  0  0  0  0  0  0  0  0  0
    2.2565   -0.8341    0.7639 H   0  0  0  0  0  0  0  0  0  0  0  0
    2.5765    1.9615    1.7707 H   0  0  0  0  0  0  0  0  0  0  0  0
    1.7060    1.5772    0.2589 H   0  0  0  0  0  0  0  0  0  0  0  0
    4.7509    2.0354    0.5277 H   0  0  0  0  0  0  0  0  0  0  0  0
    3.7751    2.3427   -0.9413 H   0  0  0  0  0  0  0  0  0  0  0  0
  2  1  1  1
  1 28  1  0
  1 29  1  0
  2  3  1  0
  2 25  1  0
  2 27  1  0
  3  4  2  0
  3 24  1  0
  4  5  1  0
  5  6  1  0
  6  7  1  0
  6 24  2  0
  7  8  2  0
  7 30  1  0
  8  9  1  0
  8 31  1  0
  9 10  2  0
  9 23  1  0
 10 11  1  0
 10 32  1  0
 11 12  2  0
 11 33  1  0
 13 12  1  1
 12 22  1  0
 13 14  2  0
 13 15  2  0
 13 16  1  0
 16 17  1  0
 16 21  1  0
 17 18  1  0
 17 34  1  0
 17 35  1  0
 18 19  1  0
 18 36  1  0
 18 37  1  0
 19 20  1  0
 20 21  1  0
 20 38  1  0
 20 39  1  0
 21 40  1  0
 21 41  1  0
 22 23  2  0
 22 42  1  0
 23 43  1  0
 25 26  1  0
 25 44  1  0
 25 45  1  0
 26 27  1  0
 26 46  1  0
 26 47  1  0
 27 48  1  0
 27 49  1  0
M  END

