
     RDKit          3D

108119  0  0  0  0  0  0  0  0999 V2000
    7.2657    1.8442    2.2111 O   0  0  0  0  0  0  0  0  0  0  0  0
    7.3691    0.7572    1.2187 S   0  0  1  0  0  0  0  0  0  0  0  0
    8.6564    0.5596    0.5359 O   0  0  0  0  0  0  0  0  0  0  0  0
    6.8727   -0.7642    1.9994 C   0  0  0  0  0  0  0  0  0  0  0  0
    7.8918   -1.5142    2.5989 C   0  0  0  0  0  0  0  0  0  0  0  0
    7.5730   -2.6417    3.3436 C   0  0  0  0  0  0  0  0  0  0  0  0
    6.2284   -3.0349    3.5028 C   0  0  0  0  0  0  0  0  0  0  0  0
    5.8704   -4.2317    4.3051 C   0  0  0  0  0  0  0  0  0  0  0  0
    6.6095   -4.5935    5.4477 C   0  0  0  0  0  0  0  0  0  0  0  0
    6.2841   -5.7165    6.2035 C   0  0  0  0  0  0  0  0  0  0  0  0
    5.1890   -6.5287    5.8513 C   0  0  0  0  0  0  0  0  0  0  0  0
    4.8508   -7.6676    6.6187 N   0  0  0  0  0  0  0  0  0  0  0  0
    4.9754   -7.6397    8.0352 C   0  0  0  0  0  0  0  0  0  0  0  0
    4.5299   -6.5275    8.7724 C   0  0  0  0  0  0  0  0  0  0  0  0
    4.6595   -6.5043   10.1620 C   0  0  0  0  0  0  0  0  0  0  0  0
    5.2167   -7.5919   10.8426 C   0  0  0  0  0  0  0  0  0  0  0  0
    5.6517   -8.7037   10.1142 C   0  0  0  0  0  0  0  0  0  0  0  0
    5.5416   -8.7282    8.7229 C   0  0  0  0  0  0  0  0  0  0  0  0
    4.3855   -8.8501    5.9809 C   0  0  0  0  0  0  0  0  0  0  0  0
    5.0132   -9.3329    4.8181 C   0  0  0  0  0  0  0  0  0  0  0  0
    4.5492  -10.4926    4.1952 C   0  0  0  0  0  0  0  0  0  0  0  0
    3.4666  -11.2010    4.7266 C   0  0  0  0  0  0  0  0  0  0  0  0
    2.8459  -10.7300    5.8880 C   0  0  0  0  0  0  0  0  0  0  0  0
    3.2926   -9.5618    6.5078 C   0  0  0  0  0  0  0  0  0  0  0  0
    4.4407   -6.1728    4.7128 C   0  0  0  0  0  0  0  0  0  0  0  0
    4.7805   -5.0532    3.9582 C   0  0  0  0  0  0  0  0  0  0  0  0
    5.2348   -2.2709    2.8679 C   0  0  0  0  0  0  0  0  0  0  0  0
    5.5223   -1.1312    2.1000 C   0  0  0  0  0  0  0  0  0  0  0  0
    4.3653   -0.3450    1.4430 C   0  0  2  0  0  0  0  0  0  0  0  0
    3.6450    0.5314    2.4983 C   0  0  0  0  0  0  0  0  0  0  0  0
    4.1515    1.6013    3.2325 C   0  0  0  0  0  0  0  0  0  0  0  0
    3.3019    2.2512    4.1390 C   0  0  0  0  0  0  0  0  0  0  0  0
    1.9739    1.8377    4.3055 C   0  0  0  0  0  0  0  0  0  0  0  0
    1.4669    0.7634    3.5675 C   0  0  0  0  0  0  0  0  0  0  0  0
    2.3088    0.1103    2.6614 C   0  0  0  0  0  0  0  0  0  0  0  0
    2.0556   -1.0278    1.7669 C   0  0  0  0  0  0  0  0  0  0  0  0
    0.9028   -1.7954    1.5597 C   0  0  0  0  0  0  0  0  0  0  0  0
    0.9434   -2.8408    0.6320 C   0  0  0  0  0  0  0  0  0  0  0  0
    2.1184   -3.1174   -0.0812 C   0  0  0  0  0  0  0  0  0  0  0  0
    3.2724   -2.3499    0.1249 C   0  0  0  0  0  0  0  0  0  0  0  0
    3.2341   -1.3087    1.0491 C   0  0  0  0  0  0  0  0  0  0  0  0
    4.7772    0.5173    0.2286 C   0  0  0  0  0  0  0  0  0  0  0  0
    3.8095    0.8839   -0.7201 C   0  0  0  0  0  0  0  0  0  0  0  0
    4.1046    1.6692   -1.8480 C   0  0  0  0  0  0  0  0  0  0  0  0
    3.0405    2.0428   -2.8123 C   0  0  0  0  0  0  0  0  0  0  0  0
    1.7206    2.2931   -2.3893 C   0  0  0  0  0  0  0  0  0  0  0  0
    0.7222    2.6576   -3.2880 C   0  0  0  0  0  0  0  0  0  0  0  0
    0.9982    2.7715   -4.6644 C   0  0  0  0  0  0  0  0  0  0  0  0
   -0.0132    3.1348   -5.5825 N   0  0  0  0  0  0  0  0  0  0  0  0
    0.2912    3.9765   -6.6880 C   0  0  0  0  0  0  0  0  0  0  0  0
   -0.2067    3.6783   -7.9692 C   0  0  0  0  0  0  0  0  0  0  0  0
    0.0829    4.5124   -9.0504 C   0  0  0  0  0  0  0  0  0  0  0  0
    0.8840    5.6460   -8.8794 C   0  0  0  0  0  0  0  0  0  0  0  0
    1.3865    5.9425   -7.6082 C   0  0  0  0  0  0  0  0  0  0  0  0
    1.0881    5.1231   -6.5183 C   0  0  0  0  0  0  0  0  0  0  0  0
   -1.3435    2.6635   -5.4091 C   0  0  0  0  0  0  0  0  0  0  0  0
   -2.4359    3.5325   -5.5826 C   0  0  0  0  0  0  0  0  0  0  0  0
   -3.7417    3.0649   -5.4254 C   0  0  0  0  0  0  0  0  0  0  0  0
   -3.9828    1.7318   -5.0780 C   0  0  0  0  0  0  0  0  0  0  0  0
   -2.8992    0.8660   -4.8978 C   0  0  0  0  0  0  0  0  0  0  0  0
   -1.5908    1.3210   -5.0694 C   0  0  0  0  0  0  0  0  0  0  0  0
    2.3130    2.5141   -5.0989 C   0  0  0  0  0  0  0  0  0  0  0  0
    3.3081    2.1677   -4.1893 C   0  0  0  0  0  0  0  0  0  0  0  0
    5.4389    2.0809   -2.0413 C   0  0  0  0  0  0  0  0  0  0  0  0
    6.4203    1.7377   -1.1211 C   0  0  0  0  0  0  0  0  0  0  0  0
    6.0832    0.9801    0.0069 C   0  0  0  0  0  0  0  0  0  0  0  0
    8.9298   -1.2073    2.4558 H   0  0  0  0  0  0  0  0  0  0  0  0
    8.3738   -3.2383    3.7846 H   0  0  0  0  0  0  0  0  0  0  0  0
    7.4529   -3.9759    5.7645 H   0  0  0  0  0  0  0  0  0  0  0  0
    6.8803   -5.9676    7.0823 H   0  0  0  0  0  0  0  0  0  0  0  0
    4.0809   -5.6812    8.2490 H   0  0  0  0  0  0  0  0  0  0  0  0
    4.3080   -5.6315   10.7186 H   0  0  0  0  0  0  0  0  0  0  0  0
    5.3105   -7.5731   11.9309 H   0  0  0  0  0  0  0  0  0  0  0  0
    6.0947   -9.5586   10.6320 H   0  0  0  0  0  0  0  0  0  0  0  0
    5.8946   -9.5937    8.1590 H   0  0  0  0  0  0  0  0  0  0  0  0
    5.8683   -8.7935    4.4063 H   0  0  0  0  0  0  0  0  0  0  0  0
    5.0499  -10.8531    3.2927 H   0  0  0  0  0  0  0  0  0  0  0  0
    3.1105  -12.1123    4.2405 H   0  0  0  0  0  0  0  0  0  0  0  0
    1.9951  -11.2699    6.3118 H   0  0  0  0  0  0  0  0  0  0  0  0
    2.7960   -9.1928    7.4072 H   0  0  0  0  0  0  0  0  0  0  0  0
    3.5877   -6.7853    4.4161 H   0  0  0  0  0  0  0  0  0  0  0  0
    4.1882   -4.8211    3.0702 H   0  0  0  0  0  0  0  0  0  0  0  0
    4.1928   -2.5655    2.9903 H   0  0  0  0  0  0  0  0  0  0  0  0
    5.1862    1.9274    3.1060 H   0  0  0  0  0  0  0  0  0  0  0  0
    3.6848    3.0923    4.7225 H   0  0  0  0  0  0  0  0  0  0  0  0
    1.3287    2.3584    5.0178 H   0  0  0  0  0  0  0  0  0  0  0  0
    0.4306    0.4416    3.6990 H   0  0  0  0  0  0  0  0  0  0  0  0
   -0.0154   -1.5841    2.1134 H   0  0  0  0  0  0  0  0  0  0  0  0
    0.0508   -3.4479    0.4607 H   0  0  0  0  0  0  0  0  0  0  0  0
    2.1343   -3.9366   -0.8044 H   0  0  0  0  0  0  0  0  0  0  0  0
    4.1865   -2.5674   -0.4333 H   0  0  0  0  0  0  0  0  0  0  0  0
    2.7903    0.5204   -0.5910 H   0  0  0  0  0  0  0  0  0  0  0  0
    1.4753    2.2428   -1.3260 H   0  0  0  0  0  0  0  0  0  0  0  0
   -0.2835    2.8697   -2.9214 H   0  0  0  0  0  0  0  0  0  0  0  0
   -0.8223    2.7881   -8.1114 H   0  0  0  0  0  0  0  0  0  0  0  0
   -0.3123    4.2651  -10.0393 H   0  0  0  0  0  0  0  0  0  0  0  0
    1.1140    6.2932   -9.7290 H   0  0  0  0  0  0  0  0  0  0  0  0
    2.0072    6.8297   -7.4578 H   0  0  0  0  0  0  0  0  0  0  0  0
    1.4714    5.3684   -5.5260 H   0  0  0  0  0  0  0  0  0  0  0  0
   -2.2541    4.5772   -5.8418 H   0  0  0  0  0  0  0  0  0  0  0  0
   -4.5784    3.7547   -5.5639 H   0  0  0  0  0  0  0  0  0  0  0  0
   -5.0058    1.3706   -4.9496 H   0  0  0  0  0  0  0  0  0  0  0  0
   -3.0723   -0.1808   -4.6343 H   0  0  0  0  0  0  0  0  0  0  0  0
   -0.7504    0.6361   -4.9417 H   0  0  0  0  0  0  0  0  0  0  0  0
    2.5505    2.5774   -6.1620 H   0  0  0  0  0  0  0  0  0  0  0  0
    4.3096    1.9502   -4.5676 H   0  0  0  0  0  0  0  0  0  0  0  0
    5.7029    2.6961   -2.9035 H   0  0  0  0  0  0  0  0  0  0  0  0
    7.4564    2.0540   -1.2570 H   0  0  0  0  0  0  0  0  0  0  0  0
  1  2  2  0
  2  3  2  0
  2  4  1  1
  2 66  1  0
  4  5  1  0
  4 28  2  0
  5  6  2  0
  5 67  1  0
  6  7  1  0
  6 68  1  0
  7  8  1  0
  7 27  2  0
  8  9  2  0
  8 26  1  0
  9 10  1  0
  9 69  1  0
 10 11  2  0
 10 70  1  0
 11 12  1  0
 11 25  1  0
 12 13  1  0
 12 19  1  0
 13 14  2  0
 13 18  1  0
 14 15  1  0
 14 71  1  0
 15 16  2  0
 15 72  1  0
 16 17  1  0
 16 73  1  0
 17 18  2  0
 17 74  1  0
 18 75  1  0
 19 20  2  0
 19 24  1  0
 20 21  1  0
 20 76  1  0
 21 22  2  0
 21 77  1  0
 22 23  1  0
 22 78  1  0
 23 24  2  0
 23 79  1  0
 24 80  1  0
 25 26  2  0
 25 81  1  0
 26 82  1  0
 27 28  1  0
 27 83  1  0
 29 28  1  1
 29 30  1  0
 29 41  1  0
 29 42  1  0
 30 31  2  0
 30 35  1  0
 31 32  1  0
 31 84  1  0
 32 33  2  0
 32 85  1  0
 33 34  1  0
 33 86  1  0
 34 35  2  0
 34 87  1  0
 35 36  1  0
 36 37  2  0
 36 41  1  0
 37 38  1  0
 37 88  1  0
 38 39  2  0
 38 89  1  0
 39 40  1  0
 39 90  1  0
 40 41  2  0
 40 91  1  0
 42 43  1  0
 42 66  2  0
 43 44  2  0
 43 92  1  0
 44 45  1  0
 44 64  1  0
 45 46  2  0
 45 63  1  0
 46 47  1  0
 46 93  1  0
 47 48  2  0
 47 94  1  0
 48 49  1  0
 48 62  1  0
 49 50  1  0
 49 56  1  0
 50 51  2  0
 50 55  1  0
 51 52  1  0
 51 95  1  0
 52 53  2  0
 52 96  1  0
 53 54  1  0
 53 97  1  0
 54 55  2  0
 54 98  1  0
 55 99  1  0
 56 57  2  0
 56 61  1  0
 57 58  1  0
 57100  1  0
 58 59  2  0
 58101  1  0
 59 60  1  0
 59102  1  0
 60 61  2  0
 60103  1  0
 61104  1  0
 62 63  2  0
 62105  1  0
 63106  1  0
 64 65  2  0
 64107  1  0
 65 66  1  0
 65108  1  0
M  END

