
     RDKit          3D

 42 44  0  0  0  0  0  0  0  0999 V2000
   -0.9610   -1.7159   -4.3843 C   0  0  0  0  0  0  0  0  0  0  0  0
    0.2771   -1.8210   -3.7052 O   0  0  0  0  0  0  0  0  0  0  0  0
    1.4135   -2.0389   -4.4091 C   0  0  0  0  0  0  0  0  0  0  0  0
    1.4490   -2.3400   -5.7781 C   0  0  0  0  0  0  0  0  0  0  0  0
    2.6739   -2.5815   -6.4105 C   0  0  0  0  0  0  0  0  0  0  0  0
    3.8726   -2.5355   -5.6976 C   0  0  0  0  0  0  0  0  0  0  0  0
    3.8459   -2.2334   -4.3330 C   0  0  0  0  0  0  0  0  0  0  0  0
    2.6311   -1.9851   -3.6943 C   0  0  0  0  0  0  0  0  0  0  0  0
    2.6554   -1.4951   -1.9605 S   0  0  1  0  0  0  0  0  0  0  0  0
    4.0129   -1.7464   -1.4695 O   0  0  0  0  0  0  0  0  0  0  0  0
    2.0256   -0.1848   -1.8502 O   0  0  0  0  0  0  0  0  0  0  0  0
    1.6530   -2.5600   -1.1471 N   0  0  0  0  0  0  0  0  0  0  0  0
    2.0676   -3.9284   -0.8803 C   0  0  0  0  0  0  0  0  0  0  0  0
    1.5389   -4.4414    0.4462 C   0  0  0  0  0  0  0  0  0  0  0  0
    1.2274   -5.7948    0.6198 C   0  0  0  0  0  0  0  0  0  0  0  0
    0.7789   -6.2188    1.8740 C   0  0  0  0  0  0  0  0  0  0  0  0
    0.6306   -5.4065    2.9157 N   0  0  0  0  0  0  0  0  0  0  0  0
    0.9259   -4.1030    2.7703 C   0  0  0  0  0  0  0  0  0  0  0  0
    0.7414   -3.2378    3.9690 C   0  0  0  0  0  0  0  0  0  0  0  0
    1.1468   -1.8941    4.0179 C   0  0  0  0  0  0  0  0  0  0  0  0
    0.9330   -1.1566    5.1814 C   0  0  0  0  0  0  0  0  0  0  0  0
    0.3182   -1.7849    6.2682 C   0  0  0  0  0  0  0  0  0  0  0  0
   -0.0736   -3.0617    6.2450 N   0  0  0  0  0  0  0  0  0  0  0  0
    0.1353   -3.7614    5.1300 C   0  0  0  0  0  0  0  0  0  0  0  0
    1.3788   -3.5888    1.5417 C   0  0  0  0  0  0  0  0  0  0  0  0
   -1.7099   -1.4601   -3.6238 H   0  0  0  0  0  0  0  0  0  0  0  0
   -1.2447   -2.6685   -4.8649 H   0  0  0  0  0  0  0  0  0  0  0  0
   -0.9343   -0.9182   -5.1456 H   0  0  0  0  0  0  0  0  0  0  0  0
    0.5269   -2.3900   -6.3571 H   0  0  0  0  0  0  0  0  0  0  0  0
    2.6812   -2.8127   -7.4786 H   0  0  0  0  0  0  0  0  0  0  0  0
    4.8241   -2.7272   -6.1976 H   0  0  0  0  0  0  0  0  0  0  0  0
    4.7622   -2.1803   -3.7423 H   0  0  0  0  0  0  0  0  0  0  0  0
    0.6806   -2.4107   -1.4126 H   0  0  0  0  0  0  0  0  0  0  0  0
    3.1694   -3.9250   -0.8452 H   0  0  0  0  0  0  0  0  0  0  0  0
    1.7734   -4.6235   -1.6888 H   0  0  0  0  0  0  0  0  0  0  0  0
    1.3243   -6.5087   -0.2024 H   0  0  0  0  0  0  0  0  0  0  0  0
    0.5230   -7.2729    2.0367 H   0  0  0  0  0  0  0  0  0  0  0  0
    1.6349   -1.4208    3.1637 H   0  0  0  0  0  0  0  0  0  0  0  0
    1.2418   -0.1108    5.2471 H   0  0  0  0  0  0  0  0  0  0  0  0
    0.1369   -1.2316    7.1976 H   0  0  0  0  0  0  0  0  0  0  0  0
   -0.1868   -4.8062    5.1239 H   0  0  0  0  0  0  0  0  0  0  0  0
    1.5975   -2.5290    1.4130 H   0  0  0  0  0  0  0  0  0  0  0  0
  1  2  1  0
  1 26  1  0
  1 27  1  0
  1 28  1  0
  2  3  1  0
  3  4  2  0
  3  8  1  0
  4  5  1  0
  4 29  1  0
  5  6  2  0
  5 30  1  0
  6  7  1  0
  6 31  1  0
  7  8  2  0
  7 32  1  0
  8  9  1  0
  9 10  2  0
  9 11  2  0
  9 12  1  1
 12 13  1  0
 12 33  1  0
 13 14  1  0
 13 34  1  0
 13 35  1  0
 14 15  2  0
 14 25  1  0
 15 16  1  0
 15 36  1  0
 16 17  2  0
 16 37  1  0
 17 18  1  0
 18 19  1  0
 18 25  2  0
 19 20  2  0
 19 24  1  0
 20 21  1  0
 20 38  1  0
 21 22  2  0
 21 39  1  0
 22 23  1  0
 22 40  1  0
 23 24  2  0
 24 41  1  0
 25 42  1  0
M  END

