
     RDKit          3D

 56 57  0  0  0  0  0  0  0  0999 V2000
    2.8487   -1.7714    0.3735 C   0  0  0  0  0  0  0  0  0  0  0  0
    2.5745   -0.2987    0.0671 C   0  0  0  0  0  0  0  0  0  0  0  0
    3.1095    0.1820   -1.2948 C   0  0  1  0  0  0  0  0  0  0  0  0
    2.5705    1.4647   -1.6253 O   0  0  0  0  0  0  0  0  0  0  0  0
    1.3378    1.6010   -2.1868 C   0  0  0  0  0  0  0  0  0  0  0  0
    0.4963    0.5348   -2.5381 C   0  0  0  0  0  0  0  0  0  0  0  0
   -0.7458    0.8007   -3.1236 C   0  0  0  0  0  0  0  0  0  0  0  0
   -1.1670    2.1114   -3.3731 C   0  0  0  0  0  0  0  0  0  0  0  0
   -2.4278    2.3361   -4.0168 N   0  0  0  0  0  0  0  0  0  0  0  0
   -2.4435    2.4529   -5.4774 C   0  0  0  0  0  0  0  0  0  0  0  0
   -3.6620    3.0946   -3.1296 S   0  0  1  0  0  0  0  0  0  0  0  0
   -4.3637    1.7387   -2.1778 C   0  0  0  0  0  0  0  0  0  0  0  0
   -3.0839    4.0321   -2.1634 O   0  0  0  0  0  0  0  0  0  0  0  0
   -4.6688    3.5373   -4.0968 O   0  0  0  0  0  0  0  0  0  0  0  0
   -0.3176    3.1735   -3.0148 C   0  0  0  0  0  0  0  0  0  0  0  0
    0.9146    2.9212   -2.4240 C   0  0  0  0  0  0  0  0  0  0  0  0
    4.6442    0.2793   -1.3040 C   0  0  0  0  0  0  0  0  0  0  0  0
    5.3225   -0.7331   -1.2082 O   0  0  0  0  0  0  0  0  0  0  0  0
    5.1566    1.5318   -1.3887 N   0  0  0  0  0  0  0  0  0  0  0  0
    6.5864    1.7824   -1.4139 C   0  0  0  0  0  0  0  0  0  0  0  0
    7.2220    1.6896   -2.8250 C   0  0  1  0  0  0  0  0  0  0  0  0
    6.5804    2.6758   -3.8104 C   0  0  0  0  0  0  0  0  0  0  0  0
    8.7337    1.8315   -2.7174 C   0  0  0  0  0  0  0  0  0  0  0  0
    9.5536    0.6921   -2.7651 C   0  0  0  0  0  0  0  0  0  0  0  0
   10.9415    0.7937   -2.6346 C   0  0  0  0  0  0  0  0  0  0  0  0
   11.5394    2.0434   -2.4497 C   0  0  0  0  0  0  0  0  0  0  0  0
   10.7372    3.1869   -2.3958 C   0  0  0  0  0  0  0  0  0  0  0  0
    9.3497    3.0805   -2.5281 C   0  0  0  0  0  0  0  0  0  0  0  0
    2.4376   -2.0413    1.3589 H   0  0  0  0  0  0  0  0  0  0  0  0
    3.9257   -1.9867    0.3674 H   0  0  0  0  0  0  0  0  0  0  0  0
    2.3760   -2.4282   -0.3761 H   0  0  0  0  0  0  0  0  0  0  0  0
    3.0031    0.3498    0.8502 H   0  0  0  0  0  0  0  0  0  0  0  0
    1.4878   -0.1112    0.0750 H   0  0  0  0  0  0  0  0  0  0  0  0
    2.8564   -0.5490   -2.0816 H   0  0  0  0  0  0  0  0  0  0  0  0
    0.7877   -0.4998   -2.3587 H   0  0  0  0  0  0  0  0  0  0  0  0
   -1.4026   -0.0283   -3.3980 H   0  0  0  0  0  0  0  0  0  0  0  0
   -2.0237    1.5340   -5.9153 H   0  0  0  0  0  0  0  0  0  0  0  0
   -1.8497    3.3136   -5.8341 H   0  0  0  0  0  0  0  0  0  0  0  0
   -3.4778    2.5742   -5.8209 H   0  0  0  0  0  0  0  0  0  0  0  0
   -3.5757    1.2966   -1.5546 H   0  0  0  0  0  0  0  0  0  0  0  0
   -4.7887    1.0045   -2.8733 H   0  0  0  0  0  0  0  0  0  0  0  0
   -5.1467    2.1807   -1.5467 H   0  0  0  0  0  0  0  0  0  0  0  0
   -0.6460    4.1998   -3.1826 H   0  0  0  0  0  0  0  0  0  0  0  0
    1.5742    3.7415   -2.1337 H   0  0  0  0  0  0  0  0  0  0  0  0
    4.4973    2.2894   -1.5227 H   0  0  0  0  0  0  0  0  0  0  0  0
    7.0676    1.0413   -0.7598 H   0  0  0  0  0  0  0  0  0  0  0  0
    6.7708    2.7810   -0.9848 H   0  0  0  0  0  0  0  0  0  0  0  0
    7.0161    0.6676   -3.1830 H   0  0  0  0  0  0  0  0  0  0  0  0
    6.7004    3.7226   -3.4850 H   0  0  0  0  0  0  0  0  0  0  0  0
    5.5010    2.4803   -3.9087 H   0  0  0  0  0  0  0  0  0  0  0  0
    7.0304    2.5847   -4.8110 H   0  0  0  0  0  0  0  0  0  0  0  0
    9.0939   -0.2903   -2.9071 H   0  0  0  0  0  0  0  0  0  0  0  0
   11.5579   -0.1081   -2.6792 H   0  0  0  0  0  0  0  0  0  0  0  0
   12.6246    2.1263   -2.3491 H   0  0  0  0  0  0  0  0  0  0  0  0
   11.1939    4.1698   -2.2519 H   0  0  0  0  0  0  0  0  0  0  0  0
    8.7427    3.9887   -2.4865 H   0  0  0  0  0  0  0  0  0  0  0  0
  1  2  1  0
  1 29  1  0
  1 30  1  0
  1 31  1  0
  2  3  1  0
  2 32  1  0
  2 33  1  0
  3  4  1  0
  3 17  1  0
  3 34  1  6
  4  5  1  0
  5  6  2  0
  5 16  1  0
  6  7  1  0
  6 35  1  0
  7  8  2  0
  7 36  1  0
  8  9  1  0
  8 15  1  0
  9 10  1  0
 11  9  1  6
 10 37  1  0
 10 38  1  0
 10 39  1  0
 11 12  1  0
 11 13  2  0
 11 14  2  0
 12 40  1  0
 12 41  1  0
 12 42  1  0
 15 16  2  0
 15 43  1  0
 16 44  1  0
 17 18  2  0
 17 19  1  0
 19 20  1  0
 19 45  1  0
 20 21  1  0
 20 46  1  0
 20 47  1  0
 21 22  1  0
 21 23  1  0
 21 48  1  6
 22 49  1  0
 22 50  1  0
 22 51  1  0
 23 24  2  0
 23 28  1  0
 24 25  1  0
 24 52  1  0
 25 26  2  0
 25 53  1  0
 26 27  1  0
 26 54  1  0
 27 28  2  0
 27 55  1  0
 28 56  1  0
M  END

