
     RDKit          3D

 31 33  0  0  0  0  0  0  0  0999 V2000
    4.8691   -2.5137   -0.6092 F   0  0  0  0  0  0  0  0  0  0  0  0
    4.3105   -1.3405   -0.3270 C   0  0  0  0  0  0  0  0  0  0  0  0
    5.1099   -0.1996   -0.3146 C   0  0  0  0  0  0  0  0  0  0  0  0
    4.5520    1.0524   -0.0590 C   0  0  0  0  0  0  0  0  0  0  0  0
    3.1781    1.1513    0.1854 C   0  0  0  0  0  0  0  0  0  0  0  0
    2.4639    2.7124    0.4999 Cl  0  0  0  0  0  0  0  0  0  0  0  0
    2.3691    0.0160    0.1876 C   0  0  0  0  0  0  0  0  0  0  0  0
    2.9344   -1.2409   -0.0637 C   0  0  0  0  0  0  0  0  0  0  0  0
    2.0935   -2.3827   -0.0619 N   0  0  0  0  0  0  0  0  0  0  0  0
    2.5042   -3.6111    0.2766 N   0  0  0  0  0  0  0  0  0  0  0  0
    1.4611   -4.3717    0.2111 N   0  0  0  0  0  0  0  0  0  0  0  0
    0.4077   -3.5819   -0.1638 C   0  0  0  0  0  0  0  0  0  0  0  0
   -0.9359   -4.1037   -0.3413 C   0  0  0  0  0  0  0  0  0  0  0  0
   -1.9944   -3.3568   -0.7201 C   0  0  0  0  0  0  0  0  0  0  0  0
   -3.3738   -3.8099   -0.9190 C   0  0  0  0  0  0  0  0  0  0  0  0
   -3.7848   -5.1460   -0.7245 C   0  0  0  0  0  0  0  0  0  0  0  0
   -5.1104   -5.5220   -0.9285 C   0  0  0  0  0  0  0  0  0  0  0  0
   -6.0617   -4.5759   -1.3318 C   0  0  0  0  0  0  0  0  0  0  0  0
   -5.6730   -3.2483   -1.5291 C   0  0  0  0  0  0  0  0  0  0  0  0
   -4.3445   -2.8717   -1.3245 C   0  0  0  0  0  0  0  0  0  0  0  0
    0.7947   -2.3186   -0.3370 N   0  0  0  0  0  0  0  0  0  0  0  0
    6.1757   -0.3142   -0.5213 H   0  0  0  0  0  0  0  0  0  0  0  0
    5.1743    1.9481   -0.0524 H   0  0  0  0  0  0  0  0  0  0  0  0
    1.2990    0.0866    0.3766 H   0  0  0  0  0  0  0  0  0  0  0  0
   -1.0220   -5.1739   -0.1408 H   0  0  0  0  0  0  0  0  0  0  0  0
   -1.8186   -2.2916   -0.9044 H   0  0  0  0  0  0  0  0  0  0  0  0
   -3.0595   -5.8993   -0.4097 H   0  0  0  0  0  0  0  0  0  0  0  0
   -5.4074   -6.5622   -0.7722 H   0  0  0  0  0  0  0  0  0  0  0  0
   -7.1007   -4.8752   -1.4908 H   0  0  0  0  0  0  0  0  0  0  0  0
   -6.4071   -2.5023   -1.8436 H   0  0  0  0  0  0  0  0  0  0  0  0
   -4.0451   -1.8316   -1.4803 H   0  0  0  0  0  0  0  0  0  0  0  0
  1  2  1  0
  2  3  2  0
  2  8  1  0
  3  4  1  0
  3 22  1  0
  4  5  2  0
  4 23  1  0
  5  6  1  0
  5  7  1  0
  7  8  2  0
  7 24  1  0
  8  9  1  0
  9 10  1  0
  9 21  1  0
 10 11  2  0
 11 12  1  0
 12 13  1  0
 12 21  2  0
 13 14  2  0
 13 25  1  0
 14 15  1  0
 14 26  1  0
 15 16  2  0
 15 20  1  0
 16 17  1  0
 16 27  1  0
 17 18  2  0
 17 28  1  0
 18 19  1  0
 18 29  1  0
 19 20  2  0
 19 30  1  0
 20 31  1  0
M  END

