
     RDKit          3D

 41 43  0  0  0  0  0  0  0  0999 V2000
    0.3068   -3.3514   -3.2193 C   0  0  0  0  0  0  0  0  0  0  0  0
    1.7555   -3.3914   -3.2477 N   0  0  0  0  0  0  0  0  0  0  0  0
    2.3738   -2.6704   -4.3557 C   0  0  0  0  0  0  0  0  0  0  0  0
    2.4307   -1.1435   -4.1576 C   0  0  0  0  0  0  0  0  0  0  0  0
    3.0985   -0.7554   -2.8185 C   0  0  2  0  0  0  0  0  0  0  0  0
    4.6319   -0.8946   -2.8449 C   0  0  0  0  0  0  0  0  0  0  0  0
    5.2223   -0.0011   -3.8203 N   0  0  0  0  0  0  0  0  0  0  0  0
    6.5757    0.0547   -4.1103 C   0  0  0  0  0  0  0  0  0  0  0  0
    7.4698   -0.9814   -3.6935 C   0  0  0  0  0  0  0  0  0  0  0  0
    8.8072   -0.9331   -4.0196 C   0  0  0  0  0  0  0  0  0  0  0  0
    9.3567    0.1410   -4.7699 C   0  0  0  0  0  0  0  0  0  0  0  0
   10.7342    0.2130   -5.1156 C   0  0  0  0  0  0  0  0  0  0  0  0
   11.2282    1.2759   -5.8430 C   0  0  0  0  0  0  0  0  0  0  0  0
   10.3556    2.3168   -6.2551 C   0  0  0  0  0  0  0  0  0  0  0  0
    9.0150    2.2773   -5.9356 C   0  0  0  0  0  0  0  0  0  0  0  0
    8.4705    1.1927   -5.1854 C   0  0  0  0  0  0  0  0  0  0  0  0
    7.0990    1.1215   -4.8414 C   0  0  0  0  0  0  0  0  0  0  0  0
    2.4684   -1.5697   -1.6679 C   0  0  0  0  0  0  0  0  0  0  0  0
    2.4087   -3.0779   -1.9823 C   0  0  0  0  0  0  0  0  0  0  0  0
   -0.0927   -3.7221   -4.1776 H   0  0  0  0  0  0  0  0  0  0  0  0
   -0.1447   -2.3489   -3.0426 H   0  0  0  0  0  0  0  0  0  0  0  0
   -0.0674   -4.0199   -2.4266 H   0  0  0  0  0  0  0  0  0  0  0  0
    1.8316   -2.9110   -5.2847 H   0  0  0  0  0  0  0  0  0  0  0  0
    3.3991   -3.0621   -4.4900 H   0  0  0  0  0  0  0  0  0  0  0  0
    1.4053   -0.7353   -4.1722 H   0  0  0  0  0  0  0  0  0  0  0  0
    2.9676   -0.6787   -5.0002 H   0  0  0  0  0  0  0  0  0  0  0  0
    2.8890    0.3142   -2.6252 H   0  0  0  0  0  0  0  0  0  0  0  0
    4.9115   -1.9316   -3.0928 H   0  0  0  0  0  0  0  0  0  0  0  0
    5.0238   -0.7057   -1.8228 H   0  0  0  0  0  0  0  0  0  0  0  0
    4.7292    0.8759   -3.9467 H   0  0  0  0  0  0  0  0  0  0  0  0
    7.0934   -1.8221   -3.1097 H   0  0  0  0  0  0  0  0  0  0  0  0
    9.4701   -1.7382   -3.6897 H   0  0  0  0  0  0  0  0  0  0  0  0
   11.3991   -0.5937   -4.7934 H   0  0  0  0  0  0  0  0  0  0  0  0
   12.2884    1.3208   -6.1039 H   0  0  0  0  0  0  0  0  0  0  0  0
   10.7533    3.1565   -6.8314 H   0  0  0  0  0  0  0  0  0  0  0  0
    8.3481    3.0826   -6.2566 H   0  0  0  0  0  0  0  0  0  0  0  0
    6.4337    1.9270   -5.1682 H   0  0  0  0  0  0  0  0  0  0  0  0
    1.4447   -1.1969   -1.4932 H   0  0  0  0  0  0  0  0  0  0  0  0
    3.0221   -1.4024   -0.7278 H   0  0  0  0  0  0  0  0  0  0  0  0
    1.8899   -3.6130   -1.1700 H   0  0  0  0  0  0  0  0  0  0  0  0
    3.4347   -3.4894   -2.0147 H   0  0  0  0  0  0  0  0  0  0  0  0
  1  2  1  0
  1 20  1  0
  1 21  1  0
  1 22  1  0
  2  3  1  0
  2 19  1  0
  3  4  1  0
  3 23  1  0
  3 24  1  0
  4  5  1  0
  4 25  1  0
  4 26  1  0
  5  6  1  0
  5 18  1  0
  5 27  1  1
  6  7  1  0
  6 28  1  0
  6 29  1  0
  7  8  1  0
  7 30  1  0
  8  9  2  0
  8 17  1  0
  9 10  1  0
  9 31  1  0
 10 11  2  0
 10 32  1  0
 11 12  1  0
 11 16  1  0
 12 13  2  0
 12 33  1  0
 13 14  1  0
 13 34  1  0
 14 15  2  0
 14 35  1  0
 15 16  1  0
 15 36  1  0
 16 17  2  0
 17 37  1  0
 18 19  1  0
 18 38  1  0
 18 39  1  0
 19 40  1  0
 19 41  1  0
M  END

