
     RDKit          3D

 39 40  0  0  0  0  0  0  0  0999 V2000
    1.4120   -0.5588    0.2392 C   0  0  0  0  0  0  0  0  0  0  0  0
    2.7438   -0.4916   -0.2168 O   0  0  0  0  0  0  0  0  0  0  0  0
    3.0989    0.4999   -1.0750 C   0  0  0  0  0  0  0  0  0  0  0  0
    2.2339    1.4850   -1.5605 C   0  0  0  0  0  0  0  0  0  0  0  0
    2.7112    2.4625   -2.4456 C   0  0  0  0  0  0  0  0  0  0  0  0
    4.0459    2.4706   -2.8548 C   0  0  0  0  0  0  0  0  0  0  0  0
    4.6211    3.4038   -3.7364 N   0  0  0  0  0  0  0  0  0  0  0  0
    4.0206    4.4606   -4.3535 C   0  0  0  0  0  0  0  0  0  0  0  0
    2.8437    4.7651   -4.2264 O   0  0  0  0  0  0  0  0  0  0  0  0
    4.9390    5.2763   -5.2498 C   0  0  0  0  0  0  0  0  0  0  0  0
    6.3067    4.8819   -5.3657 C   0  0  0  0  0  0  0  0  0  0  0  0
    7.4098    4.5142   -5.4215 N   0  0  0  0  0  0  0  0  0  0  0  0
    4.3833    6.3430   -5.8891 C   0  0  0  0  0  0  0  0  0  0  0  0
    4.9360    7.3304   -6.8049 C   0  0  0  0  0  0  0  0  0  0  0  0
    4.0552    8.3239   -7.2899 C   0  0  0  0  0  0  0  0  0  0  0  0
    4.4817    9.3142   -8.1697 C   0  0  0  0  0  0  0  0  0  0  0  0
    5.8175    9.3259   -8.5843 C   0  0  0  0  0  0  0  0  0  0  0  0
    6.3691   10.5586   -9.6857 Cl  0  0  0  0  0  0  0  0  0  0  0  0
    6.7169    8.3562   -8.1231 C   0  0  0  0  0  0  0  0  0  0  0  0
    6.2796    7.3706   -7.2437 C   0  0  0  0  0  0  0  0  0  0  0  0
    4.9179    1.4643   -2.3551 C   0  0  0  0  0  0  0  0  0  0  0  0
    6.2001    1.5453   -2.8037 O   0  0  0  0  0  0  0  0  0  0  0  0
    7.1554    0.5979   -2.3752 C   0  0  0  0  0  0  0  0  0  0  0  0
    4.4488    0.4936   -1.4776 C   0  0  0  0  0  0  0  0  0  0  0  0
    1.3546   -1.4243    0.9132 H   0  0  0  0  0  0  0  0  0  0  0  0
    0.6990   -0.7052   -0.5924 H   0  0  0  0  0  0  0  0  0  0  0  0
    1.1218    0.3495    0.7978 H   0  0  0  0  0  0  0  0  0  0  0  0
    1.1856    1.5133   -1.2654 H   0  0  0  0  0  0  0  0  0  0  0  0
    2.0450    3.2324   -2.8279 H   0  0  0  0  0  0  0  0  0  0  0  0
    5.6097    3.2399   -3.9118 H   0  0  0  0  0  0  0  0  0  0  0  0
    3.3197    6.4586   -5.6537 H   0  0  0  0  0  0  0  0  0  0  0  0
    3.0118    8.3131   -6.9648 H   0  0  0  0  0  0  0  0  0  0  0  0
    3.7908   10.0749   -8.5360 H   0  0  0  0  0  0  0  0  0  0  0  0
    7.7555    8.3796   -8.4565 H   0  0  0  0  0  0  0  0  0  0  0  0
    6.9974    6.6270   -6.8985 H   0  0  0  0  0  0  0  0  0  0  0  0
    8.1008    0.8659   -2.8646 H   0  0  0  0  0  0  0  0  0  0  0  0
    6.8706   -0.4266   -2.6725 H   0  0  0  0  0  0  0  0  0  0  0  0
    7.2923    0.6283   -1.2800 H   0  0  0  0  0  0  0  0  0  0  0  0
    5.0962   -0.2871   -1.0812 H   0  0  0  0  0  0  0  0  0  0  0  0
  1  2  1  0
  1 25  1  0
  1 26  1  0
  1 27  1  0
  2  3  1  0
  3  4  2  0
  3 24  1  0
  4  5  1  0
  4 28  1  0
  5  6  2  0
  5 29  1  0
  6  7  1  0
  6 21  1  0
  7  8  1  0
  7 30  1  0
  8  9  2  0
  8 10  1  0
 10 11  1  0
 10 13  2  0
 11 12  3  0
 13 14  1  0
 13 31  1  0
 14 15  2  0
 14 20  1  0
 15 16  1  0
 15 32  1  0
 16 17  2  0
 16 33  1  0
 17 18  1  0
 17 19  1  0
 19 20  2  0
 19 34  1  0
 20 35  1  0
 21 22  1  0
 21 24  2  0
 22 23  1  0
 23 36  1  0
 23 37  1  0
 23 38  1  0
 24 39  1  0
M  END

