
     RDKit          3D

 42 44  0  0  0  0  0  0  0  0999 V2000
    1.0317   -0.0306    0.1373 C   0  0  0  0  0  0  0  0  0  0  0  0
    2.5642   -0.0103    0.1771 C   0  0  1  0  0  0  0  0  0  0  0  0
    3.0783   -0.9258    1.3008 C   0  0  0  0  0  0  0  0  0  0  0  0
    3.1712   -0.4126   -1.1861 C   0  0  1  0  0  0  0  0  0  0  0  0
    2.6382    0.6357   -2.6487 S   0  0  0  0  0  0  0  0  0  0  0  0
    3.2867    2.2671   -2.2799 C   0  0  0  0  0  0  0  0  0  0  0  0
    4.5190    2.6635   -2.8229 C   0  0  0  0  0  0  0  0  0  0  0  0
    4.9994    3.9575   -2.6057 C   0  0  0  0  0  0  0  0  0  0  0  0
    4.2540    4.8650   -1.8470 C   0  0  0  0  0  0  0  0  0  0  0  0
    3.0210    4.4787   -1.3122 C   0  0  0  0  0  0  0  0  0  0  0  0
    2.5338    3.1874   -1.5322 C   0  0  0  0  0  0  0  0  0  0  0  0
    4.6596   -0.5129   -1.1886 C   0  0  0  0  0  0  0  0  0  0  0  0
    5.5376    0.2612   -0.6208 N   0  0  0  0  0  0  0  0  0  0  0  0
    6.7370   -0.2969   -1.0098 C   0  0  0  0  0  0  0  0  0  0  0  0
    8.0627    0.2942   -0.6039 C   0  0  1  0  0  0  0  0  0  0  0  0
    8.0678    0.7623    0.7764 N   0  0  0  0  0  0  0  0  0  0  0  0
    9.3382   -0.5377   -0.9123 C   0  0  0  0  0  0  0  0  0  0  0  0
   10.0241    0.7478   -1.4371 C   0  0  0  0  0  0  0  0  0  0  0  0
    8.6282    1.4081   -1.5477 C   0  0  0  0  0  0  0  0  0  0  0  0
    6.6052   -1.3563   -1.7681 N   0  0  0  0  0  0  0  0  0  0  0  0
    5.2245   -1.5079   -1.8874 O   0  0  0  0  0  0  0  0  0  0  0  0
    0.6183    0.3259    1.0936 H   0  0  0  0  0  0  0  0  0  0  0  0
    0.6573   -1.0562   -0.0248 H   0  0  0  0  0  0  0  0  0  0  0  0
    0.6316    0.5981   -0.6702 H   0  0  0  0  0  0  0  0  0  0  0  0
    2.9059    1.0163    0.3936 H   0  0  0  0  0  0  0  0  0  0  0  0
    2.8189   -1.9806    1.1055 H   0  0  0  0  0  0  0  0  0  0  0  0
    2.6143   -0.6450    2.2595 H   0  0  0  0  0  0  0  0  0  0  0  0
    4.1679   -0.8550    1.4255 H   0  0  0  0  0  0  0  0  0  0  0  0
    2.7787   -1.3964   -1.4912 H   0  0  0  0  0  0  0  0  0  0  0  0
    5.0934    1.9538   -3.4217 H   0  0  0  0  0  0  0  0  0  0  0  0
    5.9596    4.2575   -3.0329 H   0  0  0  0  0  0  0  0  0  0  0  0
    4.6308    5.8769   -1.6781 H   0  0  0  0  0  0  0  0  0  0  0  0
    2.4300    5.1883   -0.7275 H   0  0  0  0  0  0  0  0  0  0  0  0
    1.5618    2.8925   -1.1324 H   0  0  0  0  0  0  0  0  0  0  0  0
    7.9363   -0.0281    1.4103 H   0  0  0  0  0  0  0  0  0  0  0  0
    7.2669    1.3797    0.9241 H   0  0  0  0  0  0  0  0  0  0  0  0
    9.1549   -1.2750   -1.7058 H   0  0  0  0  0  0  0  0  0  0  0  0
    9.7905   -1.0438   -0.0458 H   0  0  0  0  0  0  0  0  0  0  0  0
   10.6095    0.6594   -2.3642 H   0  0  0  0  0  0  0  0  0  0  0  0
   10.6420    1.2284   -0.6661 H   0  0  0  0  0  0  0  0  0  0  0  0
    8.2095    1.3339   -2.5625 H   0  0  0  0  0  0  0  0  0  0  0  0
    8.5113    2.4372   -1.1771 H   0  0  0  0  0  0  0  0  0  0  0  0
  1  2  1  0
  1 22  1  0
  1 23  1  0
  1 24  1  0
  2  3  1  0
  2  4  1  0
  2 25  1  1
  3 26  1  0
  3 27  1  0
  3 28  1  0
  4  5  1  0
  4 12  1  0
  4 29  1  6
  5  6  1  0
  6  7  2  0
  6 11  1  0
  7  8  1  0
  7 30  1  0
  8  9  2  0
  8 31  1  0
  9 10  1  0
  9 32  1  0
 10 11  2  0
 10 33  1  0
 11 34  1  0
 12 13  2  0
 12 21  1  0
 13 14  1  0
 14 15  1  0
 14 20  2  0
 15 16  1  1
 15 17  1  0
 15 19  1  0
 16 35  1  0
 16 36  1  0
 17 18  1  0
 17 37  1  0
 17 38  1  0
 18 19  1  0
 18 39  1  0
 18 40  1  0
 19 41  1  0
 19 42  1  0
 20 21  1  0
M  END

