
     RDKit          3D

 46 49  0  0  0  0  0  0  0  0999 V2000
    1.1876    0.3294    0.0796 C   0  0  0  0  0  0  0  0  0  0  0  0
    2.6591    0.1131    0.2445 C   0  0  0  0  0  0  0  0  0  0  0  0
    3.6638    1.0544    0.3950 C   0  0  0  0  0  0  0  0  0  0  0  0
    4.8671    0.3102    0.4412 C   0  0  0  0  0  0  0  0  0  0  0  0
    4.6414   -0.9877    0.3264 N   0  0  0  0  0  0  0  0  0  0  0  0
    3.2964   -1.1120    0.2174 N   0  0  0  0  0  0  0  0  0  0  0  0
    2.7526   -2.4103    0.0321 C   0  0  0  0  0  0  0  0  0  0  0  0
    3.4882   -3.3569   -0.7003 C   0  0  0  0  0  0  0  0  0  0  0  0
    2.9834   -4.6401   -0.8828 C   0  0  0  0  0  0  0  0  0  0  0  0
    1.7237   -5.0013   -0.3768 C   0  0  0  0  0  0  0  0  0  0  0  0
    1.2809   -6.4342   -0.5331 C   0  0  0  0  0  0  0  0  0  0  0  0
    2.0913   -7.3356   -0.3704 O   0  0  0  0  0  0  0  0  0  0  0  0
   -0.0466   -6.6859   -0.8169 N   0  0  0  0  0  0  0  0  0  0  0  0
   -0.9878   -5.7539   -1.4309 C   0  0  0  0  0  0  0  0  0  0  0  0
   -1.4024   -6.2296   -2.8304 C   0  0  0  0  0  0  0  0  0  0  0  0
   -1.8644   -7.6068   -2.7932 N   0  0  0  0  0  0  0  0  0  0  0  0
   -3.0351   -8.0063   -3.3837 C   0  0  0  0  0  0  0  0  0  0  0  0
   -3.8030   -7.0555   -3.9567 N   0  0  0  0  0  0  0  0  0  0  0  0
   -4.9401   -7.4556   -4.5142 C   0  0  0  0  0  0  0  0  0  0  0  0
   -5.3521   -8.7908   -4.5271 C   0  0  0  0  0  0  0  0  0  0  0  0
   -4.4811   -9.6922   -3.9087 C   0  0  0  0  0  0  0  0  0  0  0  0
   -3.3383   -9.3206   -3.3438 N   0  0  0  0  0  0  0  0  0  0  0  0
   -0.9239   -8.5458   -2.1955 C   0  0  0  0  0  0  0  0  0  0  0  0
   -0.5172   -8.0702   -0.7990 C   0  0  0  0  0  0  0  0  0  0  0  0
    1.0091   -4.0575    0.3747 C   0  0  0  0  0  0  0  0  0  0  0  0
    1.5209   -2.7765    0.5918 C   0  0  0  0  0  0  0  0  0  0  0  0
    1.0068    1.3761   -0.2029 H   0  0  0  0  0  0  0  0  0  0  0  0
    0.6234    0.1395    1.0081 H   0  0  0  0  0  0  0  0  0  0  0  0
    0.7609   -0.3150   -0.7045 H   0  0  0  0  0  0  0  0  0  0  0  0
    3.5351    2.1332    0.4485 H   0  0  0  0  0  0  0  0  0  0  0  0
    5.8883    0.6746    0.5549 H   0  0  0  0  0  0  0  0  0  0  0  0
    4.4611   -3.0699   -1.0986 H   0  0  0  0  0  0  0  0  0  0  0  0
    3.5670   -5.3876   -1.4236 H   0  0  0  0  0  0  0  0  0  0  0  0
   -0.5342   -4.7596   -1.5116 H   0  0  0  0  0  0  0  0  0  0  0  0
   -1.8893   -5.6683   -0.7956 H   0  0  0  0  0  0  0  0  0  0  0  0
   -0.5295   -6.1487   -3.5086 H   0  0  0  0  0  0  0  0  0  0  0  0
   -2.2065   -5.6011   -3.2301 H   0  0  0  0  0  0  0  0  0  0  0  0
   -5.5566   -6.6742   -4.9766 H   0  0  0  0  0  0  0  0  0  0  0  0
   -6.2870   -9.1080   -4.9901 H   0  0  0  0  0  0  0  0  0  0  0  0
   -4.7175  -10.7632   -3.8695 H   0  0  0  0  0  0  0  0  0  0  0  0
   -0.0207   -8.6223   -2.8314 H   0  0  0  0  0  0  0  0  0  0  0  0
   -1.3971   -9.5331   -2.1511 H   0  0  0  0  0  0  0  0  0  0  0  0
    0.2920   -8.6948   -0.4022 H   0  0  0  0  0  0  0  0  0  0  0  0
   -1.3903   -8.1367   -0.1242 H   0  0  0  0  0  0  0  0  0  0  0  0
    0.0567   -4.3319    0.8340 H   0  0  0  0  0  0  0  0  0  0  0  0
    0.9735   -2.0800    1.2255 H   0  0  0  0  0  0  0  0  0  0  0  0
  1  2  1  0
  1 27  1  0
  1 28  1  0
  1 29  1  0
  2  3  2  0
  2  6  1  0
  3  4  1  0
  3 30  1  0
  4  5  2  0
  4 31  1  0
  5  6  1  0
  6  7  1  0
  7  8  2  0
  7 26  1  0
  8  9  1  0
  8 32  1  0
  9 10  2  0
  9 33  1  0
 10 11  1  0
 10 25  1  0
 11 12  2  0
 11 13  1  0
 13 14  1  0
 13 24  1  0
 14 15  1  0
 14 34  1  0
 14 35  1  0
 15 16  1  0
 15 36  1  0
 15 37  1  0
 16 17  1  0
 16 23  1  0
 17 18  2  0
 17 22  1  0
 18 19  1  0
 19 20  2  0
 19 38  1  0
 20 21  1  0
 20 39  1  0
 21 22  2  0
 21 40  1  0
 23 24  1  0
 23 41  1  0
 23 42  1  0
 24 43  1  0
 24 44  1  0
 25 26  2  0
 25 45  1  0
 26 46  1  0
M  END

