
     RDKit          3D

 42 44  0  0  0  0  0  0  0  0999 V2000
    2.5200   -0.1676   -1.4432 C   0  0  0  0  0  0  0  0  0  0  0  0
    2.5972    0.2039    0.0324 C   0  0  2  0  0  0  0  0  0  0  0  0
    1.5901    0.3101    0.4562 H   0  0  0  0  0  0  0  0  0  0  0  0
    3.2619    1.4818    0.1229 O   0  0  0  0  0  0  0  0  0  0  0  0
    3.0874    2.1963    1.2423 C   0  0  0  0  0  0  0  0  0  0  0  0
    2.4182    1.8188    2.1752 O   0  0  0  0  0  0  0  0  0  0  0  0
    3.8045    3.5199    1.2473 C   0  0  0  0  0  0  0  0  0  0  0  0
    3.6351    4.2544    2.4383 C   0  0  0  0  0  0  0  0  0  0  0  0
    4.2178    5.4950    2.6189 C   0  0  0  0  0  0  0  0  0  0  0  0
    4.0481    6.1759    3.7513 F   0  0  0  0  0  0  0  0  0  0  0  0
    4.9991    6.0462    1.5964 C   0  0  0  0  0  0  0  0  0  0  0  0
    5.5597    7.2390    1.7694 F   0  0  0  0  0  0  0  0  0  0  0  0
    5.1865    5.3502    0.4102 C   0  0  0  0  0  0  0  0  0  0  0  0
    4.5962    4.0925    0.2265 C   0  0  0  0  0  0  0  0  0  0  0  0
    4.9168    3.3403   -1.3181 Cl  0  0  0  0  0  0  0  0  0  0  0  0
    3.2173   -0.9283    0.8813 C   0  0  0  0  0  0  0  0  0  0  0  0
    2.4473   -1.7754    1.3062 O   0  0  0  0  0  0  0  0  0  0  0  0
    4.5684   -0.9830    1.1046 N   0  0  0  0  0  0  0  0  0  0  0  0
    5.0898   -2.0733    1.9266 C   0  0  0  0  0  0  0  0  0  0  0  0
    5.7872   -3.1097    1.0445 C   0  0  0  0  0  0  0  0  0  0  0  0
    6.7547   -2.4640    0.0721 C   0  0  0  0  0  0  0  0  0  0  0  0
    7.7541   -3.2224   -0.5592 C   0  0  0  0  0  0  0  0  0  0  0  0
    8.6411   -2.6408   -1.4646 C   0  0  0  0  0  0  0  0  0  0  0  0
    8.5396   -1.2758   -1.7558 C   0  0  0  0  0  0  0  0  0  0  0  0
    7.5507   -0.5119   -1.1369 C   0  0  0  0  0  0  0  0  0  0  0  0
    6.6546   -1.0923   -0.2258 C   0  0  0  0  0  0  0  0  0  0  0  0
    5.6101   -0.2096    0.4420 C   0  0  0  0  0  0  0  0  0  0  0  0
    3.5190   -0.2947   -1.8870 H   0  0  0  0  0  0  0  0  0  0  0  0
    1.9871    0.6151   -2.0031 H   0  0  0  0  0  0  0  0  0  0  0  0
    1.9696   -1.1138   -1.5455 H   0  0  0  0  0  0  0  0  0  0  0  0
    3.0236    3.8219    3.2316 H   0  0  0  0  0  0  0  0  0  0  0  0
    5.7977    5.7959   -0.3749 H   0  0  0  0  0  0  0  0  0  0  0  0
    4.2521   -2.5167    2.4764 H   0  0  0  0  0  0  0  0  0  0  0  0
    5.8047   -1.6456    2.6523 H   0  0  0  0  0  0  0  0  0  0  0  0
    5.0190   -3.6738    0.4854 H   0  0  0  0  0  0  0  0  0  0  0  0
    6.3159   -3.8462    1.6725 H   0  0  0  0  0  0  0  0  0  0  0  0
    7.8346   -4.2893   -0.3297 H   0  0  0  0  0  0  0  0  0  0  0  0
    9.4125   -3.2500   -1.9428 H   0  0  0  0  0  0  0  0  0  0  0  0
    9.2280   -0.8099   -2.4654 H   0  0  0  0  0  0  0  0  0  0  0  0
    7.4647    0.5556   -1.3635 H   0  0  0  0  0  0  0  0  0  0  0  0
    5.1738    0.4678   -0.2971 H   0  0  0  0  0  0  0  0  0  0  0  0
    6.1134    0.4385    1.1878 H   0  0  0  0  0  0  0  0  0  0  0  0
  1  2  1  0
  1 28  1  0
  1 29  1  0
  1 30  1  0
  2  3  1  1
  2  4  1  0
  2 16  1  0
  4  5  1  0
  5  6  2  0
  5  7  1  0
  7  8  2  0
  7 14  1  0
  8  9  1  0
  8 31  1  0
  9 10  1  0
  9 11  2  0
 11 12  1  0
 11 13  1  0
 13 14  2  0
 13 32  1  0
 14 15  1  0
 16 17  2  0
 16 18  1  0
 18 19  1  0
 18 27  1  0
 19 20  1  0
 19 33  1  0
 19 34  1  0
 20 21  1  0
 20 35  1  0
 20 36  1  0
 21 22  2  0
 21 26  1  0
 22 23  1  0
 22 37  1  0
 23 24  2  0
 23 38  1  0
 24 25  1  0
 24 39  1  0
 25 26  2  0
 25 40  1  0
 26 27  1  0
 27 41  1  0
 27 42  1  0
M  END

