
     RDKit          3D

 15 15  0  0  0  0  0  0  0  0999 V2000
    1.1257    0.8034    1.3999 O   0  0  0  0  0  0  0  0  0  0  0  0
    2.3177    0.6256    1.4507 C   0  0  0  0  0  0  0  0  0  0  0  0
    2.9377   -0.4626    0.8489 N   0  0  0  0  0  0  0  0  0  0  0  0
    4.2966   -0.7176    0.8745 C   0  0  0  0  0  0  0  0  0  0  0  0
    5.1727    0.0163    1.4865 N   0  0  0  0  0  0  0  0  0  0  0  0
    6.4433   -0.4927    1.3357 C   0  0  0  0  0  0  0  0  0  0  0  0
    7.6010    0.2193    1.9537 C   0  0  0  0  0  0  0  0  0  0  0  0
    8.0511    1.7221    1.0331 Cl  0  0  0  0  0  0  0  0  0  0  0  0
    6.5334   -1.6420    0.5951 C   0  0  0  0  0  0  0  0  0  0  0  0
    4.9566   -2.1284    0.0464 S   0  0  0  0  0  0  0  0  0  0  0  0
    3.0414    1.2890    1.9685 H   0  0  0  0  0  0  0  0  0  0  0  0
    2.3204   -1.1001    0.3533 H   0  0  0  0  0  0  0  0  0  0  0  0
    8.4935   -0.4172    1.9794 H   0  0  0  0  0  0  0  0  0  0  0  0
    7.3524    0.5474    2.9711 H   0  0  0  0  0  0  0  0  0  0  0  0
    7.4193   -2.2183    0.3366 H   0  0  0  0  0  0  0  0  0  0  0  0
  1  2  2  0
  2  3  1  0
  2 11  1  0
  3  4  1  0
  3 12  1  0
  4  5  2  0
  4 10  1  0
  5  6  1  0
  6  7  1  0
  6  9  2  0
  7  8  1  0
  7 13  1  0
  7 14  1  0
  9 10  1  0
  9 15  1  0
M  END

