
     RDKit          3D

 22 23  0  0  0  0  0  0  0  0999 V2000
    1.1939    0.0780    0.4464 C   0  0  0  0  0  0  0  0  0  0  0  0
    2.6898    0.0488    0.0844 C   0  0  1  0  0  0  0  0  0  0  0  0
    2.8696    0.1373   -1.4340 C   0  0  0  0  0  0  0  0  0  0  0  0
    3.4425    1.1829    0.8454 C   0  0  0  0  0  0  0  0  0  0  0  0
    3.8899    0.5272    2.1263 C   0  0  0  0  0  0  0  0  0  0  0  0
    4.4332    1.0270    3.1720 N   0  0  0  0  0  0  0  0  0  0  0  0
    4.8114   -0.2799    4.2630 S   0  0  0  0  0  0  0  0  0  0  0  0
    4.3883   -1.6107    3.0209 C   0  0  0  0  0  0  0  0  0  0  0  0
    3.6796   -0.8379    2.0258 N   0  0  0  0  0  0  0  0  0  0  0  0
    3.3444   -1.2385    0.6735 C   0  0  0  0  0  0  0  0  0  0  0  0
    0.7317    1.0235    0.1205 H   0  0  0  0  0  0  0  0  0  0  0  0
    1.0448   -0.0157    1.5334 H   0  0  0  0  0  0  0  0  0  0  0  0
    0.6531   -0.7479   -0.0438 H   0  0  0  0  0  0  0  0  0  0  0  0
    2.4248    1.0652   -1.8286 H   0  0  0  0  0  0  0  0  0  0  0  0
    2.3762   -0.7079   -1.9419 H   0  0  0  0  0  0  0  0  0  0  0  0
    3.9345    0.1270   -1.7174 H   0  0  0  0  0  0  0  0  0  0  0  0
    2.8241    2.0741    1.0267 H   0  0  0  0  0  0  0  0  0  0  0  0
    4.3353    1.5130    0.2872 H   0  0  0  0  0  0  0  0  0  0  0  0
    3.7582   -2.3848    3.4899 H   0  0  0  0  0  0  0  0  0  0  0  0
    5.2992   -2.0957    2.6093 H   0  0  0  0  0  0  0  0  0  0  0  0
    2.6527   -2.0972    0.6609 H   0  0  0  0  0  0  0  0  0  0  0  0
    4.2493   -1.5297    0.0985 H   0  0  0  0  0  0  0  0  0  0  0  0
  2  1  1  6
  1 11  1  0
  1 12  1  0
  1 13  1  0
  2  3  1  0
  2  4  1  0
  2 10  1  0
  3 14  1  0
  3 15  1  0
  3 16  1  0
  4  5  1  0
  4 17  1  0
  4 18  1  0
  5  6  2  0
  5  9  1  0
  6  7  1  0
  7  8  1  0
  8  9  1  0
  8 19  1  0
  8 20  1  0
  9 10  1  0
 10 21  1  0
 10 22  1  0
M  END

