
     RDKit          3D

 47 48  0  0  0  0  0  0  0  0999 V2000
    6.4256    2.2506   -0.7725 C   0  0  0  0  0  0  0  0  0  0  0  0
    7.9385    2.1200   -0.5642 C   0  0  1  0  0  0  0  0  0  0  0  0
    8.6256    3.4896   -0.5254 C   0  0  0  0  0  0  0  0  0  0  0  0
    8.2724    1.3094    0.6983 C   0  0  0  0  0  0  0  0  0  0  0  0
    7.7457   -0.0450    0.6437 N   0  0  0  0  0  0  0  0  0  0  0  0
    7.9754   -0.8355    1.8406 C   0  0  0  0  0  0  0  0  0  0  0  0
    7.3115   -2.2067    1.7168 C   0  0  0  0  0  0  0  0  0  0  0  0
    7.4315   -3.0237    2.9592 C   0  0  0  0  0  0  0  0  0  0  0  0
    7.8403   -2.6685    4.1349 N   0  0  0  0  0  0  0  0  0  0  0  0
    7.7245   -3.8061    4.9158 C   0  0  0  0  0  0  0  0  0  0  0  0
    7.2355   -4.8365    4.1613 C   0  0  0  0  0  0  0  0  0  0  0  0
    6.9308   -6.2350    4.5000 C   0  0  1  0  0  0  0  0  0  0  0  0
    5.7409   -7.0640    4.0019 C   0  0  1  0  0  0  0  0  0  0  0  0
    4.9769   -7.8704    5.0444 C   0  0  0  0  0  0  0  0  0  0  0  0
    4.7986   -6.4990    2.9486 C   0  0  0  0  0  0  0  0  0  0  0  0
    7.1622   -7.4678    3.6183 C   0  0  1  0  0  0  0  0  0  0  0  0
    7.6382   -7.3077    2.1815 C   0  0  0  0  0  0  0  0  0  0  0  0
    7.8139   -8.6759    4.2791 C   0  0  0  0  0  0  0  0  0  0  0  0
    7.0475   -4.3317    2.8973 O   0  0  0  0  0  0  0  0  0  0  0  0
    6.1938    2.7436   -1.7306 H   0  0  0  0  0  0  0  0  0  0  0  0
    5.9730    2.8553    0.0328 H   0  0  0  0  0  0  0  0  0  0  0  0
    5.9431    1.2628   -0.7571 H   0  0  0  0  0  0  0  0  0  0  0  0
    8.3543    1.5619   -1.4272 H   0  0  0  0  0  0  0  0  0  0  0  0
    8.2619    4.0892    0.3271 H   0  0  0  0  0  0  0  0  0  0  0  0
    8.4219    4.0638   -1.4434 H   0  0  0  0  0  0  0  0  0  0  0  0
    9.7192    3.3952   -0.4238 H   0  0  0  0  0  0  0  0  0  0  0  0
    7.8273    1.8130    1.5769 H   0  0  0  0  0  0  0  0  0  0  0  0
    9.3747    1.3334    0.8627 H   0  0  0  0  0  0  0  0  0  0  0  0
    8.1326   -0.5265   -0.1691 H   0  0  0  0  0  0  0  0  0  0  0  0
    7.5412   -0.3057    2.7043 H   0  0  0  0  0  0  0  0  0  0  0  0
    9.0521   -0.9691    2.0869 H   0  0  0  0  0  0  0  0  0  0  0  0
    7.7491   -2.7746    0.8754 H   0  0  0  0  0  0  0  0  0  0  0  0
    6.2458   -2.0671    1.4616 H   0  0  0  0  0  0  0  0  0  0  0  0
    7.9994   -3.8177    5.9690 H   0  0  0  0  0  0  0  0  0  0  0  0
    7.1684   -6.4015    5.5563 H   0  0  0  0  0  0  0  0  0  0  0  0
    4.1761   -7.2553    5.4881 H   0  0  0  0  0  0  0  0  0  0  0  0
    5.6102   -8.2257    5.8684 H   0  0  0  0  0  0  0  0  0  0  0  0
    4.4982   -8.7523    4.5848 H   0  0  0  0  0  0  0  0  0  0  0  0
    4.0060   -5.9027    3.4309 H   0  0  0  0  0  0  0  0  0  0  0  0
    4.3044   -7.3202    2.4017 H   0  0  0  0  0  0  0  0  0  0  0  0
    5.2929   -5.8504    2.2178 H   0  0  0  0  0  0  0  0  0  0  0  0
    7.2463   -6.4139    1.6849 H   0  0  0  0  0  0  0  0  0  0  0  0
    7.3462   -8.1889    1.5850 H   0  0  0  0  0  0  0  0  0  0  0  0
    8.7389   -7.2421    2.1522 H   0  0  0  0  0  0  0  0  0  0  0  0
    7.5604   -8.7784    5.3429 H   0  0  0  0  0  0  0  0  0  0  0  0
    8.9120   -8.6003    4.2097 H   0  0  0  0  0  0  0  0  0  0  0  0
    7.5155   -9.6095    3.7716 H   0  0  0  0  0  0  0  0  0  0  0  0
  1  2  1  0
  1 20  1  0
  1 21  1  0
  1 22  1  0
  2  3  1  0
  2  4  1  0
  2 23  1  6
  3 24  1  0
  3 25  1  0
  3 26  1  0
  4  5  1  0
  4 27  1  0
  4 28  1  0
  5  6  1  0
  5 29  1  0
  6  7  1  0
  6 30  1  0
  6 31  1  0
  7  8  1  0
  7 32  1  0
  7 33  1  0
  8  9  2  0
  8 19  1  0
  9 10  1  0
 10 11  2  0
 10 34  1  0
 11 12  1  0
 11 19  1  0
 12 13  1  0
 12 16  1  0
 12 35  1  1
 13 14  1  1
 13 15  1  0
 13 16  1  0
 14 36  1  0
 14 37  1  0
 14 38  1  0
 15 39  1  0
 15 40  1  0
 15 41  1  0
 16 17  1  6
 16 18  1  0
 17 42  1  0
 17 43  1  0
 17 44  1  0
 18 45  1  0
 18 46  1  0
 18 47  1  0
M  END

