
     RDKit          3D

 19 18  0  0  0  0  0  0  0  0999 V2000
    2.5880    1.2959    0.1870 C   0  0  0  0  0  0  0  0  0  0  0  0
    2.4081   -0.0240    0.0523 C   0  0  0  0  0  0  0  0  0  0  0  0
    3.2040   -0.8468   -0.9321 C   0  0  0  0  0  0  0  0  0  0  0  0
    2.3364   -1.6803   -1.6908 O   0  0  0  0  0  0  0  0  0  0  0  0
    2.9989   -2.5598   -2.5896 C   0  0  0  0  0  0  0  0  0  0  0  0
    1.9656   -3.3767   -3.3400 C   0  0  0  0  0  0  0  0  0  0  0  0
    1.4288   -0.7145    0.9864 C   0  0  0  0  0  0  0  0  0  0  0  0
    1.0469   -0.2184    2.0152 O   0  0  0  0  0  0  0  0  0  0  0  0
    1.0036   -1.9209    0.5844 O   0  0  0  0  0  0  0  0  0  0  0  0
    3.2742    1.8517   -0.4579 H   0  0  0  0  0  0  0  0  0  0  0  0
    2.0471    1.8408    0.9643 H   0  0  0  0  0  0  0  0  0  0  0  0
    3.9354   -1.4793   -0.3856 H   0  0  0  0  0  0  0  0  0  0  0  0
    3.7814   -0.1842   -1.6030 H   0  0  0  0  0  0  0  0  0  0  0  0
    3.6939   -3.2160   -2.0280 H   0  0  0  0  0  0  0  0  0  0  0  0
    3.6127   -1.9635   -3.2927 H   0  0  0  0  0  0  0  0  0  0  0  0
    1.3727   -3.9957   -2.6488 H   0  0  0  0  0  0  0  0  0  0  0  0
    2.4607   -4.0460   -4.0603 H   0  0  0  0  0  0  0  0  0  0  0  0
    1.2772   -2.7191   -3.8921 H   0  0  0  0  0  0  0  0  0  0  0  0
    1.3253   -2.0940   -0.3283 H   0  0  0  0  0  0  0  0  0  0  0  0
  1  2  2  0
  1 10  1  0
  1 11  1  0
  2  3  1  0
  2  7  1  0
  3  4  1  0
  3 12  1  0
  3 13  1  0
  4  5  1  0
  5  6  1  0
  5 14  1  0
  5 15  1  0
  6 16  1  0
  6 17  1  0
  6 18  1  0
  7  8  2  0
  7  9  1  0
  9 19  1  0
M  END

