
     RDKit          3D

 36 37  0  0  0  0  0  0  0  0999 V2000
    5.8078    1.5813    4.4456 C   0  0  0  0  0  0  0  0  0  0  0  0
    6.4258    1.7740    3.0857 C   0  0  0  0  0  0  0  0  0  0  0  0
    5.6307    1.8888    1.9368 C   0  0  0  0  0  0  0  0  0  0  0  0
    6.1759    2.0586    0.6562 C   0  0  0  0  0  0  0  0  0  0  0  0
    5.3075    2.2621   -0.5643 C   0  0  1  0  0  0  0  0  0  0  0  0
    3.8439    1.1625   -0.5466 Cl  0  0  0  0  0  0  0  0  0  0  0  0
    4.8075    3.7144   -0.7425 C   0  0  0  0  0  0  0  0  0  0  0  0
    5.9141    4.6188   -0.9924 N   0  0  0  0  0  0  0  0  0  0  0  0
    6.1269    4.9987   -2.3864 C   0  0  0  0  0  0  0  0  0  0  0  0
    5.2358    6.1693   -2.8368 C   0  0  0  0  0  0  0  0  0  0  0  0
    5.3999    7.3678   -1.8908 C   0  0  0  0  0  0  0  0  0  0  0  0
    5.1862    6.9474   -0.4295 C   0  0  0  0  0  0  0  0  0  0  0  0
    6.0790    5.7451   -0.0781 C   0  0  0  0  0  0  0  0  0  0  0  0
    7.5695    2.1162    0.5242 C   0  0  0  0  0  0  0  0  0  0  0  0
    8.3920    2.0087    1.6467 C   0  0  0  0  0  0  0  0  0  0  0  0
    7.8204    1.8410    2.9085 C   0  0  0  0  0  0  0  0  0  0  0  0
    8.8812    1.7016    4.2998 Cl  0  0  0  0  0  0  0  0  0  0  0  0
    4.7109    1.5576    4.3799 H   0  0  0  0  0  0  0  0  0  0  0  0
    6.0991    2.3905    5.1349 H   0  0  0  0  0  0  0  0  0  0  0  0
    6.1489    0.6408    4.9084 H   0  0  0  0  0  0  0  0  0  0  0  0
    4.5456    1.8196    2.0439 H   0  0  0  0  0  0  0  0  0  0  0  0
    5.8663    1.9705   -1.4637 H   0  0  0  0  0  0  0  0  0  0  0  0
    4.2598    4.0050    0.1686 H   0  0  0  0  0  0  0  0  0  0  0  0
    4.0660    3.7153   -1.5622 H   0  0  0  0  0  0  0  0  0  0  0  0
    5.9711    4.1173   -3.0295 H   0  0  0  0  0  0  0  0  0  0  0  0
    7.1881    5.2876   -2.5097 H   0  0  0  0  0  0  0  0  0  0  0  0
    4.1793    5.8442   -2.8423 H   0  0  0  0  0  0  0  0  0  0  0  0
    5.4817    6.4525   -3.8747 H   0  0  0  0  0  0  0  0  0  0  0  0
    4.7081    8.1804   -2.1688 H   0  0  0  0  0  0  0  0  0  0  0  0
    6.4215    7.7780   -2.0020 H   0  0  0  0  0  0  0  0  0  0  0  0
    4.1262    6.6749   -0.2729 H   0  0  0  0  0  0  0  0  0  0  0  0
    5.3991    7.7875    0.2539 H   0  0  0  0  0  0  0  0  0  0  0  0
    5.8957    5.3997    0.9509 H   0  0  0  0  0  0  0  0  0  0  0  0
    7.1383    6.0636   -0.1135 H   0  0  0  0  0  0  0  0  0  0  0  0
    8.0192    2.2512   -0.4618 H   0  0  0  0  0  0  0  0  0  0  0  0
    9.4781    2.0505    1.5499 H   0  0  0  0  0  0  0  0  0  0  0  0
  1  2  1  0
  1 18  1  0
  1 19  1  0
  1 20  1  0
  2  3  2  0
  2 16  1  0
  3  4  1  0
  3 21  1  0
  4  5  1  0
  4 14  2  0
  5  6  1  0
  5  7  1  0
  5 22  1  6
  7  8  1  0
  7 23  1  0
  7 24  1  0
  8  9  1  0
  8 13  1  0
  9 10  1  0
  9 25  1  0
  9 26  1  0
 10 11  1  0
 10 27  1  0
 10 28  1  0
 11 12  1  0
 11 29  1  0
 11 30  1  0
 12 13  1  0
 12 31  1  0
 12 32  1  0
 13 33  1  0
 13 34  1  0
 14 15  1  0
 14 35  1  0
 15 16  2  0
 15 36  1  0
 16 17  1  0
M  END

