
     RDKit          3D

 41 43  0  0  0  0  0  0  0  0999 V2000
    7.6200   -0.8277   -2.8637 C   0  0  0  0  0  0  0  0  0  0  0  0
    6.5226   -1.5200   -2.0630 C   0  0  0  0  0  0  0  0  0  0  0  0
    5.4482   -0.5971   -1.7277 N   0  0  0  0  0  0  0  0  0  0  0  0
    4.3458   -1.1649   -0.9582 C   0  0  1  0  0  0  0  0  0  0  0  0
    4.7561   -1.4427    0.4857 C   0  0  0  0  0  0  0  0  0  0  0  0
    4.3001   -2.5890    1.1532 C   0  0  0  0  0  0  0  0  0  0  0  0
    4.6126   -2.8424    2.4965 C   0  0  0  0  0  0  0  0  0  0  0  0
    5.4036   -1.9084    3.1588 C   0  0  0  0  0  0  0  0  0  0  0  0
    5.8762   -0.7556    2.5188 C   0  0  0  0  0  0  0  0  0  0  0  0
    5.5547   -0.5179    1.1879 C   0  0  0  0  0  0  0  0  0  0  0  0
    6.6396    0.0761    3.5448 C   0  0  1  0  0  0  0  0  0  0  0  0
    7.9883    0.6045    3.0400 C   0  0  0  0  0  0  0  0  0  0  0  0
    5.7568    1.2399    4.0431 C   0  0  0  0  0  0  0  0  0  0  0  0
    6.8181   -0.9991    4.6570 C   0  0  0  0  0  0  0  0  0  0  0  0
    5.8025   -1.9965    4.4576 O   0  0  0  0  0  0  0  0  0  0  0  0
    3.1608   -0.2072   -1.0196 C   0  0  1  0  0  0  0  0  0  0  0  0
    2.2447   -0.2089   -2.2215 C   0  0  0  0  0  0  0  0  0  0  0  0
    1.7527   -0.7129   -0.8862 C   0  0  0  0  0  0  0  0  0  0  0  0
    8.4400   -1.5252   -3.0964 H   0  0  0  0  0  0  0  0  0  0  0  0
    8.0342    0.0244   -2.3024 H   0  0  0  0  0  0  0  0  0  0  0  0
    7.2328   -0.4412   -3.8224 H   0  0  0  0  0  0  0  0  0  0  0  0
    6.9436   -1.9144   -1.1228 H   0  0  0  0  0  0  0  0  0  0  0  0
    6.1556   -2.4099   -2.6259 H   0  0  0  0  0  0  0  0  0  0  0  0
    5.0758   -0.1744   -2.5773 H   0  0  0  0  0  0  0  0  0  0  0  0
    4.0023   -2.1328   -1.3922 H   0  0  0  0  0  0  0  0  0  0  0  0
    3.6910   -3.3156    0.6071 H   0  0  0  0  0  0  0  0  0  0  0  0
    4.2640   -3.7418    3.0073 H   0  0  0  0  0  0  0  0  0  0  0  0
    5.9200    0.3666    0.6596 H   0  0  0  0  0  0  0  0  0  0  0  0
    7.8450    1.3389    2.2314 H   0  0  0  0  0  0  0  0  0  0  0  0
    8.6169   -0.2101    2.6479 H   0  0  0  0  0  0  0  0  0  0  0  0
    8.5430    1.1092    3.8489 H   0  0  0  0  0  0  0  0  0  0  0  0
    5.5149    1.9272    3.2172 H   0  0  0  0  0  0  0  0  0  0  0  0
    6.2734    1.8171    4.8287 H   0  0  0  0  0  0  0  0  0  0  0  0
    4.8082    0.8655    4.4582 H   0  0  0  0  0  0  0  0  0  0  0  0
    6.7093   -0.5974    5.6754 H   0  0  0  0  0  0  0  0  0  0  0  0
    7.8064   -1.4879    4.5741 H   0  0  0  0  0  0  0  0  0  0  0  0
    3.3728    0.7700   -0.5715 H   0  0  0  0  0  0  0  0  0  0  0  0
    2.4292   -0.9507   -3.0057 H   0  0  0  0  0  0  0  0  0  0  0  0
    1.8662    0.7478   -2.5930 H   0  0  0  0  0  0  0  0  0  0  0  0
    1.6043   -1.7909   -0.7720 H   0  0  0  0  0  0  0  0  0  0  0  0
    1.0344   -0.1050   -0.3294 H   0  0  0  0  0  0  0  0  0  0  0  0
  1  2  1  0
  1 19  1  0
  1 20  1  0
  1 21  1  0
  2  3  1  0
  2 22  1  0
  2 23  1  0
  3  4  1  0
  3 24  1  0
  4  5  1  0
  4 16  1  0
  4 25  1  6
  5  6  2  0
  5 10  1  0
  6  7  1  0
  6 26  1  0
  7  8  2  0
  7 27  1  0
  8  9  1  0
  8 15  1  0
  9 10  2  0
  9 11  1  0
 10 28  1  0
 11 12  1  6
 11 13  1  0
 11 14  1  0
 12 29  1  0
 12 30  1  0
 12 31  1  0
 13 32  1  0
 13 33  1  0
 13 34  1  0
 14 15  1  0
 14 35  1  0
 14 36  1  0
 16 17  1  0
 16 18  1  0
 16 37  1  1
 17 18  1  0
 17 38  1  0
 17 39  1  0
 18 40  1  0
 18 41  1  0
M  END

