
     RDKit          3D

 47 50  0  0  0  0  0  0  0  0999 V2000
    1.6333    0.5571   -0.5835 O   0  0  0  0  0  0  0  0  0  0  0  0
    2.7838    0.2482   -0.3276 C   0  0  0  0  0  0  0  0  0  0  0  0
    3.1491   -1.2077   -0.1776 C   0  0  0  0  0  0  0  0  0  0  0  0
    2.1043   -2.1479   -0.2468 C   0  0  0  0  0  0  0  0  0  0  0  0
    2.3637   -3.5115   -0.1250 C   0  0  0  0  0  0  0  0  0  0  0  0
    3.6760   -3.9601    0.0666 C   0  0  0  0  0  0  0  0  0  0  0  0
    4.7238   -3.0376    0.1352 C   0  0  0  0  0  0  0  0  0  0  0  0
    4.4633   -1.6701    0.0145 C   0  0  0  0  0  0  0  0  0  0  0  0
    3.8652    1.3148   -0.1350 C   0  0  1  0  0  0  0  0  0  0  0  0
    3.5018    2.6581   -0.8004 C   0  0  0  0  0  0  0  0  0  0  0  0
    2.4786    3.4868   -0.0130 C   0  0  0  0  0  0  0  0  0  0  0  0
    2.8979    3.6378    1.3823 N   0  0  0  0  0  0  0  0  0  0  0  0
    2.9750    4.8994    1.9111 C   0  0  0  0  0  0  0  0  0  0  0  0
    2.6307    5.8924    1.2769 O   0  0  0  0  0  0  0  0  0  0  0  0
    3.4954    5.1200    3.3113 C   0  0  0  0  0  0  0  0  0  0  0  0
    3.2385    6.3227    3.9329 C   0  0  0  0  0  0  0  0  0  0  0  0
    3.9935    6.3737    5.4737 S   0  0  0  0  0  0  0  0  0  0  0  0
    4.6336    4.7522    5.1920 C   0  0  0  0  0  0  0  0  0  0  0  0
    5.4828    4.0607    6.1748 C   0  0  0  0  0  0  0  0  0  0  0  0
    5.7066    4.5830    7.4619 C   0  0  0  0  0  0  0  0  0  0  0  0
    6.5175    3.9055    8.3731 C   0  0  0  0  0  0  0  0  0  0  0  0
    7.1176    2.6942    8.0157 C   0  0  0  0  0  0  0  0  0  0  0  0
    6.9007    2.1658    6.7382 C   0  0  0  0  0  0  0  0  0  0  0  0
    6.0923    2.8404    5.8244 C   0  0  0  0  0  0  0  0  0  0  0  0
    4.2818    4.2599    4.0343 N   0  0  0  0  0  0  0  0  0  0  0  0
    3.0831    2.3625    2.0686 C   0  0  0  0  0  0  0  0  0  0  0  0
    4.1656    1.5301    1.3733 C   0  0  0  0  0  0  0  0  0  0  0  0
    1.0900   -1.7750   -0.4006 H   0  0  0  0  0  0  0  0  0  0  0  0
    1.5422   -4.2303   -0.1803 H   0  0  0  0  0  0  0  0  0  0  0  0
    3.8819   -5.0295    0.1610 H   0  0  0  0  0  0  0  0  0  0  0  0
    5.7500   -3.3836    0.2815 H   0  0  0  0  0  0  0  0  0  0  0  0
    5.2975   -0.9686    0.0672 H   0  0  0  0  0  0  0  0  0  0  0  0
    4.7840    0.9350   -0.6099 H   0  0  0  0  0  0  0  0  0  0  0  0
    3.1138    2.4823   -1.8159 H   0  0  0  0  0  0  0  0  0  0  0  0
    4.4281    3.2485   -0.9030 H   0  0  0  0  0  0  0  0  0  0  0  0
    1.4963    2.9888   -0.0451 H   0  0  0  0  0  0  0  0  0  0  0  0
    2.3722    4.4906   -0.4396 H   0  0  0  0  0  0  0  0  0  0  0  0
    2.6628    7.1512    3.5274 H   0  0  0  0  0  0  0  0  0  0  0  0
    5.2382    5.5247    7.7600 H   0  0  0  0  0  0  0  0  0  0  0  0
    6.6789    4.3253    9.3691 H   0  0  0  0  0  0  0  0  0  0  0  0
    7.7521    2.1638    8.7301 H   0  0  0  0  0  0  0  0  0  0  0  0
    7.3682    1.2205    6.4511 H   0  0  0  0  0  0  0  0  0  0  0  0
    5.9230    2.4386    4.8245 H   0  0  0  0  0  0  0  0  0  0  0  0
    2.1207    1.8168    2.0546 H   0  0  0  0  0  0  0  0  0  0  0  0
    3.3629    2.5356    3.1106 H   0  0  0  0  0  0  0  0  0  0  0  0
    4.2771    0.5651    1.8936 H   0  0  0  0  0  0  0  0  0  0  0  0
    5.1264    2.0633    1.4688 H   0  0  0  0  0  0  0  0  0  0  0  0
  1  2  2  0
  2  3  1  0
  2  9  1  0
  3  4  2  0
  3  8  1  0
  4  5  1  0
  4 28  1  0
  5  6  2  0
  5 29  1  0
  6  7  1  0
  6 30  1  0
  7  8  2  0
  7 31  1  0
  8 32  1  0
  9 10  1  0
  9 27  1  0
  9 33  1  6
 10 11  1  0
 10 34  1  0
 10 35  1  0
 11 12  1  0
 11 36  1  0
 11 37  1  0
 12 13  1  0
 12 26  1  0
 13 14  2  0
 13 15  1  0
 15 16  2  0
 15 25  1  0
 16 17  1  0
 16 38  1  0
 17 18  1  0
 18 19  1  0
 18 25  2  0
 19 20  2  0
 19 24  1  0
 20 21  1  0
 20 39  1  0
 21 22  2  0
 21 40  1  0
 22 23  1  0
 22 41  1  0
 23 24  2  0
 23 42  1  0
 24 43  1  0
 26 27  1  0
 26 44  1  0
 26 45  1  0
 27 46  1  0
 27 47  1  0
M  END

