
     RDKit          3D

 36 38  0  0  0  0  0  0  0  0999 V2000
    1.3761    1.0236   -0.0098 C   0  0  0  0  0  0  0  0  0  0  0  0
    2.6196    0.2742    0.0254 N   0  0  0  0  0  0  0  0  0  0  0  0
    2.8352   -0.8584   -0.6768 C   0  0  0  0  0  0  0  0  0  0  0  0
    2.0423   -1.6783   -1.4459 C   0  0  0  0  0  0  0  0  0  0  0  0
    2.8015   -2.7275   -2.1959 C   0  0  0  0  0  0  0  0  0  0  0  0
    3.9995   -2.9547   -2.2041 O   0  0  0  0  0  0  0  0  0  0  0  0
    1.8507   -3.4272   -2.9311 N   0  0  0  0  0  0  0  0  0  0  0  0
    0.5651   -2.9666   -2.6866 C   0  0  0  0  0  0  0  0  0  0  0  0
   -0.6374   -3.4484   -3.1945 C   0  0  0  0  0  0  0  0  0  0  0  0
   -1.8353   -2.8574   -2.7724 C   0  0  0  0  0  0  0  0  0  0  0  0
   -1.7956   -1.8137   -1.8461 C   0  0  0  0  0  0  0  0  0  0  0  0
   -3.3003   -1.0923   -1.2959 Cl  0  0  0  0  0  0  0  0  0  0  0  0
   -0.5875   -1.3234   -1.3328 C   0  0  0  0  0  0  0  0  0  0  0  0
    0.6226   -1.8798   -1.7641 C   0  0  0  0  0  0  0  0  0  0  0  0
    3.6669    0.7908    0.9075 C   0  0  0  0  0  0  0  0  0  0  0  0
    4.2059    2.1539    0.5061 C   0  0  0  0  0  0  0  0  0  0  0  0
    4.3103    3.1852    1.4493 C   0  0  0  0  0  0  0  0  0  0  0  0
    4.8418    4.4294    1.0932 C   0  0  0  0  0  0  0  0  0  0  0  0
    5.2697    4.6571   -0.2167 C   0  0  0  0  0  0  0  0  0  0  0  0
    5.1647    3.6354   -1.1675 C   0  0  0  0  0  0  0  0  0  0  0  0
    4.6376    2.3934   -0.8086 C   0  0  0  0  0  0  0  0  0  0  0  0
    0.9070    0.9284   -0.9960 H   0  0  0  0  0  0  0  0  0  0  0  0
    1.5931    2.0880    0.1605 H   0  0  0  0  0  0  0  0  0  0  0  0
    0.6652    0.6887    0.7665 H   0  0  0  0  0  0  0  0  0  0  0  0
    3.8800   -1.1934   -0.6595 H   0  0  0  0  0  0  0  0  0  0  0  0
    2.0965   -4.2086   -3.5255 H   0  0  0  0  0  0  0  0  0  0  0  0
   -0.6530   -4.2793   -3.9037 H   0  0  0  0  0  0  0  0  0  0  0  0
   -2.7946   -3.2126   -3.1513 H   0  0  0  0  0  0  0  0  0  0  0  0
   -0.6291   -0.5248   -0.5972 H   0  0  0  0  0  0  0  0  0  0  0  0
    4.4837    0.0530    0.9165 H   0  0  0  0  0  0  0  0  0  0  0  0
    3.2812    0.8411    1.9416 H   0  0  0  0  0  0  0  0  0  0  0  0
    3.9733    3.0138    2.4761 H   0  0  0  0  0  0  0  0  0  0  0  0
    4.9162    5.2229    1.8411 H   0  0  0  0  0  0  0  0  0  0  0  0
    5.6827    5.6288   -0.4988 H   0  0  0  0  0  0  0  0  0  0  0  0
    5.4981    3.8069   -2.1942 H   0  0  0  0  0  0  0  0  0  0  0  0
    4.5589    1.6010   -1.5580 H   0  0  0  0  0  0  0  0  0  0  0  0
  1  2  1  0
  1 22  1  0
  1 23  1  0
  1 24  1  0
  2  3  1  0
  2 15  1  0
  3  4  2  0
  3 25  1  0
  4  5  1  0
  4 14  1  0
  5  6  2  0
  5  7  1  0
  7  8  1  0
  7 26  1  0
  8  9  1  0
  8 14  2  0
  9 10  2  0
  9 27  1  0
 10 11  1  0
 10 28  1  0
 11 12  1  0
 11 13  2  0
 13 14  1  0
 13 29  1  0
 15 16  1  0
 15 30  1  0
 15 31  1  0
 16 17  2  0
 16 21  1  0
 17 18  1  0
 17 32  1  0
 18 19  2  0
 18 33  1  0
 19 20  1  0
 19 34  1  0
 20 21  2  0
 20 35  1  0
 21 36  1  0
M  END

