
     RDKit          3D

 52 56  0  0  0  0  0  0  0  0999 V2000
    3.4668   -1.4071   -0.2658 C   0  0  0  0  0  0  0  0  0  0  0  0
    2.6603   -0.1354   -0.0027 C   0  0  2  0  0  0  0  0  0  0  0  0
    1.5896   -0.3790   -0.0981 H   0  0  0  0  0  0  0  0  0  0  0  0
    3.0375    1.0732   -0.8920 C   0  0  2  0  0  0  0  0  0  0  0  0
    3.2477    0.7883   -1.9321 H   0  0  0  0  0  0  0  0  0  0  0  0
    4.2099    1.6916   -0.0950 C   0  0  0  0  0  0  0  0  0  0  0  0
    3.3816    1.8187    1.1934 C   0  0  1  0  0  0  0  0  0  0  0  0
    3.8823    2.1998    2.0879 H   0  0  0  0  0  0  0  0  0  0  0  0
    2.2294    2.7190    0.6973 C   0  0  2  0  0  0  0  0  0  0  0  0
    2.5630    3.7661    0.6520 H   0  0  0  0  0  0  0  0  0  0  0  0
    1.1342    2.6257    1.5973 O   0  0  0  0  0  0  0  0  0  0  0  0
    0.1684    3.5609    1.5451 C   0  0  0  0  0  0  0  0  0  0  0  0
   -0.8737    3.4578    2.4892 C   0  0  0  0  0  0  0  0  0  0  0  0
   -1.8695    4.4204    2.4522 C   0  0  0  0  0  0  0  0  0  0  0  0
   -1.8039    5.4445    1.4913 C   0  0  0  0  0  0  0  0  0  0  0  0
   -2.8504    6.5201    1.3960 C   0  0  1  0  0  0  0  0  0  0  0  0
   -3.8185    6.3632    2.3153 F   0  0  0  0  0  0  0  0  0  0  0  0
   -2.3228    7.7473    1.5748 F   0  0  0  0  0  0  0  0  0  0  0  0
   -3.4441    6.5333    0.1863 F   0  0  0  0  0  0  0  0  0  0  0  0
   -0.7254    5.4440    0.6053 C   0  0  0  0  0  0  0  0  0  0  0  0
    0.2397    4.5217    0.6299 N   0  0  0  0  0  0  0  0  0  0  0  0
    1.9517    2.1620   -0.7313 C   0  0  0  0  0  0  0  0  0  0  0  0
    2.8972    0.4350    1.3521 N   0  0  0  0  0  0  0  0  0  0  0  0
    2.3782   -0.2043    2.4471 C   0  0  0  0  0  0  0  0  0  0  0  0
    1.7226   -1.2299    2.3373 O   0  0  0  0  0  0  0  0  0  0  0  0
    2.7410    0.3109    3.8259 C   0  0  0  0  0  0  0  0  0  0  0  0
    4.0570    0.6904    4.1315 C   0  0  0  0  0  0  0  0  0  0  0  0
    4.4325    1.0211    5.4358 C   0  0  0  0  0  0  0  0  0  0  0  0
    3.4958    0.9870    6.4679 C   0  0  0  0  0  0  0  0  0  0  0  0
    2.1926    0.5957    6.1749 C   0  0  0  0  0  0  0  0  0  0  0  0
    1.2900    0.5584    7.1544 F   0  0  0  0  0  0  0  0  0  0  0  0
    1.8046    0.2417    4.8764 C   0  0  0  0  0  0  0  0  0  0  0  0
    0.4736   -0.2283    4.6887 N   0  0  0  0  0  0  0  0  0  0  0  0
   -0.4231    0.3885    3.9254 N   0  0  0  0  0  0  0  0  0  0  0  0
   -1.4867   -0.4076    3.9772 C   0  0  0  0  0  0  0  0  0  0  0  0
   -1.1772   -1.5089    4.8023 C   0  0  0  0  0  0  0  0  0  0  0  0
    0.0695   -1.3682    5.2390 N   0  0  0  0  0  0  0  0  0  0  0  0
    4.5516   -1.2255   -0.2101 H   0  0  0  0  0  0  0  0  0  0  0  0
    3.2338   -1.7963   -1.2700 H   0  0  0  0  0  0  0  0  0  0  0  0
    3.2016   -2.1796    0.4689 H   0  0  0  0  0  0  0  0  0  0  0  0
    4.5432    2.6625   -0.4916 H   0  0  0  0  0  0  0  0  0  0  0  0
    5.0813    1.0320    0.0205 H   0  0  0  0  0  0  0  0  0  0  0  0
   -0.8601    2.6293    3.1995 H   0  0  0  0  0  0  0  0  0  0  0  0
   -2.6986    4.3878    3.1613 H   0  0  0  0  0  0  0  0  0  0  0  0
   -0.6374    6.2225   -0.1609 H   0  0  0  0  0  0  0  0  0  0  0  0
    2.0475    2.9549   -1.4869 H   0  0  0  0  0  0  0  0  0  0  0  0
    0.9335    1.7530   -0.8034 H   0  0  0  0  0  0  0  0  0  0  0  0
    4.8099    0.6830    3.3424 H   0  0  0  0  0  0  0  0  0  0  0  0
    5.4665    1.3004    5.6511 H   0  0  0  0  0  0  0  0  0  0  0  0
    3.7507    1.2483    7.4965 H   0  0  0  0  0  0  0  0  0  0  0  0
   -2.4027   -0.1628    3.4430 H   0  0  0  0  0  0  0  0  0  0  0  0
   -1.7828   -2.3668    5.0874 H   0  0  0  0  0  0  0  0  0  0  0  0
  1  2  1  0
  1 38  1  0
  1 39  1  0
  1 40  1  0
  2  3  1  1
  2  4  1  0
  2 23  1  0
  4  5  1  6
  4  6  1  0
  4 22  1  0
  6  7  1  0
  6 41  1  0
  6 42  1  0
  7  8  1  1
  7  9  1  0
  7 23  1  0
  9 10  1  6
  9 11  1  0
  9 22  1  0
 11 12  1  0
 12 13  2  0
 12 21  1  0
 13 14  1  0
 13 43  1  0
 14 15  2  0
 14 44  1  0
 15 16  1  0
 15 20  1  0
 16 17  1  1
 16 18  1  0
 16 19  1  0
 20 21  2  0
 20 45  1  0
 22 46  1  0
 22 47  1  0
 23 24  1  0
 24 25  2  0
 24 26  1  0
 26 27  2  0
 26 32  1  0
 27 28  1  0
 27 48  1  0
 28 29  2  0
 28 49  1  0
 29 30  1  0
 29 50  1  0
 30 31  1  0
 30 32  2  0
 32 33  1  0
 33 34  1  0
 33 37  1  0
 34 35  2  0
 35 36  1  0
 35 51  1  0
 36 37  2  0
 36 52  1  0
M  END

