
     RDKit          3D

 52 54  0  0  0  0  0  0  0  0999 V2000
    0.7435   -0.2441   -0.2943 N   0  0  0  0  0  0  0  0  0  0  0  0
    2.0191   -0.3795    0.2385 N   0  0  0  0  0  0  0  0  0  0  0  0
    2.8118   -1.4310   -0.1163 C   0  0  0  0  0  0  0  0  0  0  0  0
    4.0495   -1.4732    0.2058 N   0  0  0  0  0  0  0  0  0  0  0  0
    4.8241   -2.6072   -0.0464 C   0  0  0  0  0  0  0  0  0  0  0  0
    6.1862   -2.4296   -0.3634 C   0  0  0  0  0  0  0  0  0  0  0  0
    7.0145   -3.5278   -0.5916 C   0  0  0  0  0  0  0  0  0  0  0  0
    6.5139   -4.8283   -0.4998 C   0  0  0  0  0  0  0  0  0  0  0  0
    5.1622   -5.0324   -0.1860 C   0  0  0  0  0  0  0  0  0  0  0  0
    4.6880   -6.4610   -0.0833 C   0  0  0  0  0  0  0  0  0  0  0  0
    5.4695   -7.3820    0.0932 O   0  0  0  0  0  0  0  0  0  0  0  0
    3.3253   -6.6273   -0.2257 N   0  0  0  0  0  0  0  0  0  0  0  0
    2.5583   -7.8049   -0.1815 C   0  0  0  0  0  0  0  0  0  0  0  0
    3.1296   -9.0779   -0.0051 C   0  0  0  0  0  0  0  0  0  0  0  0
    2.3238  -10.2159   -0.0124 C   0  0  0  0  0  0  0  0  0  0  0  0
    0.9368  -10.1383   -0.2001 C   0  0  0  0  0  0  0  0  0  0  0  0
    0.0666  -11.3750   -0.1739 C   0  0  0  0  0  0  0  0  0  0  0  0
   -0.3775  -11.7626    1.2426 C   0  0  0  0  0  0  0  0  0  0  0  0
   -1.2760  -12.9925    1.2770 C   0  0  0  0  0  0  0  0  0  0  0  0
   -1.6537  -13.5891    0.3071 O   0  0  0  0  0  0  0  0  0  0  0  0
   -1.6513  -13.3950    2.5161 O   0  0  0  0  0  0  0  0  0  0  0  0
    0.3793   -8.8644   -0.3743 C   0  0  0  0  0  0  0  0  0  0  0  0
    1.1529   -7.6960   -0.3575 C   0  0  0  0  0  0  0  0  0  0  0  0
    0.4939   -6.3673   -0.5442 C   0  0  0  0  0  0  0  0  0  0  0  0
    0.5099   -5.3993    0.4793 C   0  0  0  0  0  0  0  0  0  0  0  0
   -0.0842   -4.1483    0.2917 C   0  0  0  0  0  0  0  0  0  0  0  0
   -0.7130   -3.8411   -0.9192 C   0  0  0  0  0  0  0  0  0  0  0  0
   -0.7569   -4.8007   -1.9347 C   0  0  0  0  0  0  0  0  0  0  0  0
   -0.1588   -6.0509   -1.7493 C   0  0  0  0  0  0  0  0  0  0  0  0
    4.3322   -3.9249    0.0528 C   0  0  0  0  0  0  0  0  0  0  0  0
    0.6959    0.5197   -0.9719 H   0  0  0  0  0  0  0  0  0  0  0  0
    0.0630   -0.0653    0.4439 H   0  0  0  0  0  0  0  0  0  0  0  0
    2.4800    0.3962    0.7143 H   0  0  0  0  0  0  0  0  0  0  0  0
    2.2666   -2.2014   -0.6912 H   0  0  0  0  0  0  0  0  0  0  0  0
    6.5711   -1.4093   -0.4209 H   0  0  0  0  0  0  0  0  0  0  0  0
    8.0676   -3.3677   -0.8376 H   0  0  0  0  0  0  0  0  0  0  0  0
    7.1516   -5.6997   -0.6548 H   0  0  0  0  0  0  0  0  0  0  0  0
    2.8033   -5.7946   -0.4705 H   0  0  0  0  0  0  0  0  0  0  0  0
    4.2070   -9.1534    0.1189 H   0  0  0  0  0  0  0  0  0  0  0  0
    2.7974  -11.1938    0.1186 H   0  0  0  0  0  0  0  0  0  0  0  0
    0.6022  -12.2285   -0.6184 H   0  0  0  0  0  0  0  0  0  0  0  0
   -0.8318  -11.2266   -0.7925 H   0  0  0  0  0  0  0  0  0  0  0  0
   -0.9209  -10.9256    1.7187 H   0  0  0  0  0  0  0  0  0  0  0  0
    0.5016  -11.9503    1.8860 H   0  0  0  0  0  0  0  0  0  0  0  0
   -1.2645  -12.8192    3.1912 H   0  0  0  0  0  0  0  0  0  0  0  0
   -0.7006   -8.7658   -0.5200 H   0  0  0  0  0  0  0  0  0  0  0  0
    0.9905   -5.6359    1.4324 H   0  0  0  0  0  0  0  0  0  0  0  0
   -0.0546   -3.4079    1.0951 H   0  0  0  0  0  0  0  0  0  0  0  0
   -1.1511   -2.8520   -1.0703 H   0  0  0  0  0  0  0  0  0  0  0  0
   -1.2491   -4.5720   -2.8836 H   0  0  0  0  0  0  0  0  0  0  0  0
   -0.1795   -6.7908   -2.5534 H   0  0  0  0  0  0  0  0  0  0  0  0
    3.2988   -4.0658    0.3775 H   0  0  0  0  0  0  0  0  0  0  0  0
  1  2  1  0
  1 31  1  0
  1 32  1  0
  2  3  1  0
  2 33  1  0
  3  4  2  0
  3 34  1  0
  4  5  1  0
  5  6  2  0
  5 30  1  0
  6  7  1  0
  6 35  1  0
  7  8  2  0
  7 36  1  0
  8  9  1  0
  8 37  1  0
  9 10  1  0
  9 30  2  0
 10 11  2  0
 10 12  1  0
 12 13  1  0
 12 38  1  0
 13 14  2  0
 13 23  1  0
 14 15  1  0
 14 39  1  0
 15 16  2  0
 15 40  1  0
 16 17  1  0
 16 22  1  0
 17 18  1  0
 17 41  1  0
 17 42  1  0
 18 19  1  0
 18 43  1  0
 18 44  1  0
 19 20  2  0
 19 21  1  0
 21 45  1  0
 22 23  2  0
 22 46  1  0
 23 24  1  0
 24 25  2  0
 24 29  1  0
 25 26  1  0
 25 47  1  0
 26 27  2  0
 26 48  1  0
 27 28  1  0
 27 49  1  0
 28 29  2  0
 28 50  1  0
 29 51  1  0
 30 52  1  0
M  END

