
     RDKit          3D

 34 34  0  0  0  0  0  0  0  0999 V2000
    0.2407   -2.2560    0.2743 C   0  0  0  0  0  0  0  0  0  0  0  0
    1.7574   -2.0652    0.2171 C   0  0  0  0  0  0  0  0  0  0  0  0
    2.5394   -3.2679    0.7604 C   0  0  0  0  0  0  0  0  0  0  0  0
    4.0668   -3.1578    0.6625 C   0  0  0  0  0  0  0  0  0  0  0  0
    4.6797   -2.0901    1.5796 C   0  0  0  0  0  0  0  0  0  0  0  0
    6.1392   -2.0148    1.4839 N   0  0  0  0  0  0  0  0  0  0  0  0
    6.6985   -1.0436    0.5491 C   0  0  0  0  0  0  0  0  0  0  0  0
    6.7050    0.3912    1.0522 C   0  0  1  0  0  0  0  0  0  0  0  0
    7.8895    0.9758    1.7788 C   0  0  0  0  0  0  0  0  0  0  0  0
    7.5715    1.4199    0.3720 C   0  0  0  0  0  0  0  0  0  0  0  0
    6.8679   -2.9015    2.2441 C   0  0  0  0  0  0  0  0  0  0  0  0
    8.3869   -2.8703    2.1293 C   0  0  0  0  0  0  0  0  0  0  0  0
    6.3159   -3.7027    2.9847 O   0  0  0  0  0  0  0  0  0  0  0  0
   -0.2947   -1.3797   -0.1249 H   0  0  0  0  0  0  0  0  0  0  0  0
   -0.1040   -2.4131    1.3102 H   0  0  0  0  0  0  0  0  0  0  0  0
   -0.0745   -3.1350   -0.3128 H   0  0  0  0  0  0  0  0  0  0  0  0
    2.0264   -1.1531    0.7791 H   0  0  0  0  0  0  0  0  0  0  0  0
    2.0660   -1.8765   -0.8279 H   0  0  0  0  0  0  0  0  0  0  0  0
    2.2179   -4.1718    0.2129 H   0  0  0  0  0  0  0  0  0  0  0  0
    2.2548   -3.4431    1.8147 H   0  0  0  0  0  0  0  0  0  0  0  0
    4.3566   -2.9559   -0.3855 H   0  0  0  0  0  0  0  0  0  0  0  0
    4.5176   -4.1246    0.9366 H   0  0  0  0  0  0  0  0  0  0  0  0
    4.4196   -2.3205    2.6230 H   0  0  0  0  0  0  0  0  0  0  0  0
    4.2733   -1.0937    1.3471 H   0  0  0  0  0  0  0  0  0  0  0  0
    6.1085   -1.0906   -0.3842 H   0  0  0  0  0  0  0  0  0  0  0  0
    7.7195   -1.3399    0.2715 H   0  0  0  0  0  0  0  0  0  0  0  0
    5.7236    0.7472    1.3853 H   0  0  0  0  0  0  0  0  0  0  0  0
    8.7736    0.3481    1.9240 H   0  0  0  0  0  0  0  0  0  0  0  0
    7.7012    1.6709    2.6018 H   0  0  0  0  0  0  0  0  0  0  0  0
    8.2338    1.0800   -0.4310 H   0  0  0  0  0  0  0  0  0  0  0  0
    7.1661    2.4235    0.2159 H   0  0  0  0  0  0  0  0  0  0  0  0
    8.7227   -3.1514    1.1179 H   0  0  0  0  0  0  0  0  0  0  0  0
    8.7800   -3.6018    2.8454 H   0  0  0  0  0  0  0  0  0  0  0  0
    8.8030   -1.8790    2.3601 H   0  0  0  0  0  0  0  0  0  0  0  0
  1  2  1  0
  1 14  1  0
  1 15  1  0
  1 16  1  0
  2  3  1  0
  2 17  1  0
  2 18  1  0
  3  4  1  0
  3 19  1  0
  3 20  1  0
  4  5  1  0
  4 21  1  0
  4 22  1  0
  5  6  1  0
  5 23  1  0
  5 24  1  0
  6  7  1  0
  6 11  1  0
  7  8  1  0
  7 25  1  0
  7 26  1  0
  8  9  1  0
  8 10  1  0
  8 27  1  1
  9 10  1  0
  9 28  1  0
  9 29  1  0
 10 30  1  0
 10 31  1  0
 11 12  1  0
 11 13  2  0
 12 32  1  0
 12 33  1  0
 12 34  1  0
M  END

