
     RDKit          3D

 32 33  0  0  0  0  0  0  0  0999 V2000
    1.0238   -0.0443    0.1053 N   0  0  0  0  0  0  0  0  0  0  0  0
    2.4715   -0.2351   -0.0422 C   0  0  1  0  0  0  0  0  0  0  0  0
    2.8970   -1.6212   -0.5784 C   0  0  0  0  0  0  0  0  0  0  0  0
    2.5661   -1.8136   -2.0640 C   0  0  0  0  0  0  0  0  0  0  0  0
    3.1750   -0.6938   -2.9173 C   0  0  0  0  0  0  0  0  0  0  0  0
    2.7229    0.6870   -2.4242 C   0  0  0  0  0  0  0  0  0  0  0  0
    3.0323    0.9063   -0.9210 C   0  0  2  0  0  0  0  0  0  0  0  0
    4.5233    1.1463   -0.6846 C   0  0  0  0  0  0  0  0  0  0  0  0
    5.2031    0.4312    0.0193 O   0  0  0  0  0  0  0  0  0  0  0  0
    5.1437    2.3580   -1.3538 C   0  0  0  0  0  0  0  0  0  0  0  0
    4.5531    3.6238   -1.1965 C   0  0  0  0  0  0  0  0  0  0  0  0
    5.1448    4.7758   -1.7170 C   0  0  0  0  0  0  0  0  0  0  0  0
    6.3399    4.6751   -2.4330 C   0  0  0  0  0  0  0  0  0  0  0  0
    6.9370    3.4274   -2.6229 C   0  0  0  0  0  0  0  0  0  0  0  0
    6.3474    2.2814   -2.0807 C   0  0  0  0  0  0  0  0  0  0  0  0
    7.1290    0.7456   -2.3883 Cl  0  0  0  0  0  0  0  0  0  0  0  0
    0.6574   -0.7037    0.7926 H   0  0  0  0  0  0  0  0  0  0  0  0
    0.5375   -0.2571   -0.7666 H   0  0  0  0  0  0  0  0  0  0  0  0
    2.9086   -0.1172    0.9618 H   0  0  0  0  0  0  0  0  0  0  0  0
    2.4107   -2.4036    0.0305 H   0  0  0  0  0  0  0  0  0  0  0  0
    3.9829   -1.7320   -0.4275 H   0  0  0  0  0  0  0  0  0  0  0  0
    1.4687   -1.8236   -2.2082 H   0  0  0  0  0  0  0  0  0  0  0  0
    2.9237   -2.7984   -2.4075 H   0  0  0  0  0  0  0  0  0  0  0  0
    2.8965   -0.8196   -3.9772 H   0  0  0  0  0  0  0  0  0  0  0  0
    4.2772   -0.7574   -2.8769 H   0  0  0  0  0  0  0  0  0  0  0  0
    1.6331    0.7912   -2.5696 H   0  0  0  0  0  0  0  0  0  0  0  0
    3.1833    1.4866   -3.0265 H   0  0  0  0  0  0  0  0  0  0  0  0
    2.5109    1.8279   -0.6081 H   0  0  0  0  0  0  0  0  0  0  0  0
    3.6199    3.7083   -0.6354 H   0  0  0  0  0  0  0  0  0  0  0  0
    4.6717    5.7484   -1.5644 H   0  0  0  0  0  0  0  0  0  0  0  0
    6.8108    5.5677   -2.8522 H   0  0  0  0  0  0  0  0  0  0  0  0
    7.8626    3.3296   -3.1925 H   0  0  0  0  0  0  0  0  0  0  0  0
  1  2  1  0
  1 17  1  0
  1 18  1  0
  2  3  1  0
  2  7  1  0
  2 19  1  1
  3  4  1  0
  3 20  1  0
  3 21  1  0
  4  5  1  0
  4 22  1  0
  4 23  1  0
  5  6  1  0
  5 24  1  0
  5 25  1  0
  6  7  1  0
  6 26  1  0
  6 27  1  0
  7  8  1  0
  7 28  1  1
  8  9  2  0
  8 10  1  0
 10 11  2  0
 10 15  1  0
 11 12  1  0
 11 29  1  0
 12 13  2  0
 12 30  1  0
 13 14  1  0
 13 31  1  0
 14 15  2  0
 14 32  1  0
 15 16  1  0
M  END

