
     RDKit          3D

 31 31  0  0  0  0  0  0  0  0999 V2000
    0.9041    0.0694   -0.2364 O   0  0  0  0  0  0  0  0  0  0  0  0
    2.0693   -0.0407    0.1129 C   0  0  0  0  0  0  0  0  0  0  0  0
    2.6824   -1.2527    0.3833 N   0  0  0  0  0  0  0  0  0  0  0  0
    2.1477   -2.5335    0.1799 C   0  0  0  0  0  0  0  0  0  0  0  0
    0.9223   -2.8267   -0.4420 C   0  0  0  0  0  0  0  0  0  0  0  0
    0.5196   -4.1567   -0.6012 C   0  0  0  0  0  0  0  0  0  0  0  0
    1.3128   -5.2135   -0.1487 C   0  0  0  0  0  0  0  0  0  0  0  0
    2.5347   -4.9380    0.4750 C   0  0  0  0  0  0  0  0  0  0  0  0
    2.9270   -3.6175    0.6252 C   0  0  0  0  0  0  0  0  0  0  0  0
    4.1067   -3.3300    1.2227 F   0  0  0  0  0  0  0  0  0  0  0  0
    2.8806    1.0799    0.2742 N   0  0  0  0  0  0  0  0  0  0  0  0
    2.2118    2.3829    0.2315 C   0  0  0  0  0  0  0  0  0  0  0  0
    1.4601    2.7119    1.5243 C   0  0  0  0  0  0  0  0  0  0  0  0
    2.2909    2.6563    2.6718 O   0  0  0  0  0  0  0  0  0  0  0  0
    4.3267    1.0366    0.3422 C   0  0  0  0  0  0  0  0  0  0  0  0
    4.8859    1.1462    1.7546 C   0  0  1  0  0  0  0  0  0  0  0  0
    4.3707    0.1248    2.5190 F   0  0  0  0  0  0  0  0  0  0  0  0
    6.2327    0.9955    1.7142 F   0  0  0  0  0  0  0  0  0  0  0  0
    3.5202   -1.2416    0.9542 H   0  0  0  0  0  0  0  0  0  0  0  0
    0.2986   -2.0031   -0.7810 H   0  0  0  0  0  0  0  0  0  0  0  0
   -0.4373   -4.3629   -1.0868 H   0  0  0  0  0  0  0  0  0  0  0  0
    0.9876   -6.2484   -0.2755 H   0  0  0  0  0  0  0  0  0  0  0  0
    3.1906   -5.7280    0.8460 H   0  0  0  0  0  0  0  0  0  0  0  0
    1.5036    2.4064   -0.6118 H   0  0  0  0  0  0  0  0  0  0  0  0
    2.9856    3.1450    0.0542 H   0  0  0  0  0  0  0  0  0  0  0  0
    0.5919    2.0370    1.6208 H   0  0  0  0  0  0  0  0  0  0  0  0
    1.0699    3.7408    1.4519 H   0  0  0  0  0  0  0  0  0  0  0  0
    2.3359    1.7379    2.9682 H   0  0  0  0  0  0  0  0  0  0  0  0
    4.7538    1.8601   -0.2538 H   0  0  0  0  0  0  0  0  0  0  0  0
    4.7075    0.1014   -0.0962 H   0  0  0  0  0  0  0  0  0  0  0  0
    4.6336    2.0918    2.2585 H   0  0  0  0  0  0  0  0  0  0  0  0
  1  2  2  0
  2  3  1  0
  2 11  1  0
  3  4  1  0
  3 19  1  0
  4  5  2  0
  4  9  1  0
  5  6  1  0
  5 20  1  0
  6  7  2  0
  6 21  1  0
  7  8  1  0
  7 22  1  0
  8  9  2  0
  8 23  1  0
  9 10  1  0
 11 12  1  0
 11 15  1  0
 12 13  1  0
 12 24  1  0
 12 25  1  0
 13 14  1  0
 13 26  1  0
 13 27  1  0
 14 28  1  0
 15 16  1  0
 15 29  1  0
 15 30  1  0
 16 17  1  0
 16 18  1  0
 16 31  1  1
M  END

