
     RDKit          3D

 45 45  0  0  0  0  0  0  0  0999 V2000
    0.5842   -0.7002   -0.6749 C   0  0  0  0  0  0  0  0  0  0  0  0
    2.1114   -0.7781   -0.6500 C   0  0  0  0  0  0  0  0  0  0  0  0
    2.7885    0.1210   -1.6892 C   0  0  0  0  0  0  0  0  0  0  0  0
    4.3181    0.0488   -1.6707 C   0  0  0  0  0  0  0  0  0  0  0  0
    4.9942    0.9485   -2.7093 C   0  0  0  0  0  0  0  0  0  0  0  0
    6.5239    0.8744   -2.6893 C   0  0  0  0  0  0  0  0  0  0  0  0
    7.1958    1.7785   -3.7253 C   0  0  0  0  0  0  0  0  0  0  0  0
    8.7214    1.6946   -3.7085 C   0  0  0  0  0  0  0  0  0  0  0  0
    9.3022    2.5923   -4.6839 N   0  0  0  0  0  0  0  0  0  0  0  0
   10.6688    2.6968   -4.9003 C   0  0  0  0  0  0  0  0  0  0  0  0
   11.6205    2.1454   -4.0131 C   0  0  0  0  0  0  0  0  0  0  0  0
   12.9861    2.3021   -4.2391 C   0  0  0  0  0  0  0  0  0  0  0  0
   13.4544    3.0025   -5.3567 C   0  0  0  0  0  0  0  0  0  0  0  0
   14.8175    3.0985   -5.4908 O   0  0  0  0  0  0  0  0  0  0  0  0
   15.3395    3.7802   -6.5889 C   0  0  0  0  0  0  0  0  0  0  0  0
   16.8549    3.7328   -6.4983 C   0  0  1  0  0  0  0  0  0  0  0  0
   17.3093    4.3200   -5.3849 F   0  0  0  0  0  0  0  0  0  0  0  0
   17.3193    2.4780   -6.5226 F   0  0  0  0  0  0  0  0  0  0  0  0
   17.3773    4.3869   -7.5528 F   0  0  0  0  0  0  0  0  0  0  0  0
   12.5265    3.5486   -6.2529 C   0  0  0  0  0  0  0  0  0  0  0  0
   11.1576    3.3950   -6.0222 C   0  0  0  0  0  0  0  0  0  0  0  0
    0.1321   -1.3585    0.0841 H   0  0  0  0  0  0  0  0  0  0  0  0
    0.1832   -1.0014   -1.6574 H   0  0  0  0  0  0  0  0  0  0  0  0
    0.2316    0.3261   -0.4773 H   0  0  0  0  0  0  0  0  0  0  0  0
    2.4303   -1.8239   -0.8128 H   0  0  0  0  0  0  0  0  0  0  0  0
    2.4783   -0.5078    0.3571 H   0  0  0  0  0  0  0  0  0  0  0  0
    2.4705    1.1681   -1.5270 H   0  0  0  0  0  0  0  0  0  0  0  0
    2.4223   -0.1487   -2.6976 H   0  0  0  0  0  0  0  0  0  0  0  0
    4.6358   -0.9981   -1.8332 H   0  0  0  0  0  0  0  0  0  0  0  0
    4.6838    0.3181   -0.6622 H   0  0  0  0  0  0  0  0  0  0  0  0
    4.6781    1.9957   -2.5467 H   0  0  0  0  0  0  0  0  0  0  0  0
    4.6293    0.6795   -3.7181 H   0  0  0  0  0  0  0  0  0  0  0  0
    6.8406   -0.1719   -2.8548 H   0  0  0  0  0  0  0  0  0  0  0  0
    6.8884    1.1425   -1.6805 H   0  0  0  0  0  0  0  0  0  0  0  0
    6.8968    2.8287   -3.5586 H   0  0  0  0  0  0  0  0  0  0  0  0
    6.8308    1.5098   -4.7350 H   0  0  0  0  0  0  0  0  0  0  0  0
    9.0376    0.6415   -3.8739 H   0  0  0  0  0  0  0  0  0  0  0  0
    9.0847    1.9668   -2.7007 H   0  0  0  0  0  0  0  0  0  0  0  0
    8.7281    2.7677   -5.5004 H   0  0  0  0  0  0  0  0  0  0  0  0
   11.2956    1.5882   -3.1339 H   0  0  0  0  0  0  0  0  0  0  0  0
   13.7169    1.8751   -3.5490 H   0  0  0  0  0  0  0  0  0  0  0  0
   15.0386    4.8446   -6.6097 H   0  0  0  0  0  0  0  0  0  0  0  0
   15.0476    3.3204   -7.5518 H   0  0  0  0  0  0  0  0  0  0  0  0
   12.8484    4.0991   -7.1379 H   0  0  0  0  0  0  0  0  0  0  0  0
   10.4482    3.8347   -6.7296 H   0  0  0  0  0  0  0  0  0  0  0  0
  1  2  1  0
  1 22  1  0
  1 23  1  0
  1 24  1  0
  2  3  1  0
  2 25  1  0
  2 26  1  0
  3  4  1  0
  3 27  1  0
  3 28  1  0
  4  5  1  0
  4 29  1  0
  4 30  1  0
  5  6  1  0
  5 31  1  0
  5 32  1  0
  6  7  1  0
  6 33  1  0
  6 34  1  0
  7  8  1  0
  7 35  1  0
  7 36  1  0
  8  9  1  0
  8 37  1  0
  8 38  1  0
  9 10  1  0
  9 39  1  0
 10 11  2  0
 10 21  1  0
 11 12  1  0
 11 40  1  0
 12 13  2  0
 12 41  1  0
 13 14  1  0
 13 20  1  0
 14 15  1  0
 15 16  1  0
 15 42  1  0
 15 43  1  0
 16 17  1  1
 16 18  1  0
 16 19  1  0
 20 21  2  0
 20 44  1  0
 21 45  1  0
M  END

