
     RDKit          3D

 34 34  0  0  0  0  0  0  0  0999 V2000
    3.7219    1.4867    1.5455 C   0  0  0  0  0  0  0  0  0  0  0  0
    2.9528    0.4909    0.6669 C   0  0  1  0  0  0  0  0  0  0  0  0
    1.5411    0.3439    1.0240 N   0  0  0  0  0  0  0  0  0  0  0  0
    2.9859    0.8463   -0.8312 C   0  0  0  0  0  0  0  0  0  0  0  0
    4.3311    0.9824   -1.4095 N   0  0  0  0  0  0  0  0  0  0  0  0
    5.0026   -0.1901   -1.7914 C   0  0  0  0  0  0  0  0  0  0  0  0
    4.5191   -1.2851   -1.6014 O   0  0  0  0  0  0  0  0  0  0  0  0
    6.3518    0.0116   -2.4797 C   0  0  0  0  0  0  0  0  0  0  0  0
    7.0841    1.1829   -2.0355 N   0  0  0  0  0  0  0  0  0  0  0  0
    7.7070    1.1391   -0.6918 C   0  0  1  0  0  0  0  0  0  0  0  0
    8.2787   -0.2423   -0.3606 C   0  0  0  0  0  0  0  0  0  0  0  0
    8.8197    2.1918   -0.6047 C   0  0  0  0  0  0  0  0  0  0  0  0
    6.2443    2.3440   -2.2591 C   0  0  0  0  0  0  0  0  0  0  0  0
    4.8439    2.2695   -1.6410 C   0  0  0  0  0  0  0  0  0  0  0  0
    4.2039    3.2676   -1.3899 O   0  0  0  0  0  0  0  0  0  0  0  0
    3.6498    1.1936    2.6058 H   0  0  0  0  0  0  0  0  0  0  0  0
    3.3131    2.5053    1.4397 H   0  0  0  0  0  0  0  0  0  0  0  0
    4.7929    1.5304    1.2887 H   0  0  0  0  0  0  0  0  0  0  0  0
    3.4128   -0.5061    0.7722 H   0  0  0  0  0  0  0  0  0  0  0  0
    1.0951    1.2628    1.0706 H   0  0  0  0  0  0  0  0  0  0  0  0
    1.4517   -0.0602    1.9560 H   0  0  0  0  0  0  0  0  0  0  0  0
    2.4753    1.8044   -0.9981 H   0  0  0  0  0  0  0  0  0  0  0  0
    2.4583    0.0540   -1.3763 H   0  0  0  0  0  0  0  0  0  0  0  0
    6.1513    0.1125   -3.5635 H   0  0  0  0  0  0  0  0  0  0  0  0
    6.9214   -0.9158   -2.3593 H   0  0  0  0  0  0  0  0  0  0  0  0
    6.9512    1.3769    0.0910 H   0  0  0  0  0  0  0  0  0  0  0  0
    8.9890   -0.5699   -1.1375 H   0  0  0  0  0  0  0  0  0  0  0  0
    7.5017   -1.0128   -0.2496 H   0  0  0  0  0  0  0  0  0  0  0  0
    8.8243   -0.1913    0.5935 H   0  0  0  0  0  0  0  0  0  0  0  0
    9.6155    1.9610   -1.3306 H   0  0  0  0  0  0  0  0  0  0  0  0
    9.2573    2.2038    0.4057 H   0  0  0  0  0  0  0  0  0  0  0  0
    8.4576    3.2093   -0.8136 H   0  0  0  0  0  0  0  0  0  0  0  0
    6.1028    2.4981   -3.3459 H   0  0  0  0  0  0  0  0  0  0  0  0
    6.7016    3.2646   -1.8767 H   0  0  0  0  0  0  0  0  0  0  0  0
  1  2  1  0
  1 16  1  0
  1 17  1  0
  1 18  1  0
  2  3  1  0
  2  4  1  0
  2 19  1  6
  3 20  1  0
  3 21  1  0
  4  5  1  0
  4 22  1  0
  4 23  1  0
  5  6  1  0
  5 14  1  0
  6  7  2  0
  6  8  1  0
  8  9  1  0
  8 24  1  0
  8 25  1  0
  9 10  1  0
  9 13  1  0
 10 11  1  0
 10 12  1  0
 10 26  1  1
 11 27  1  0
 11 28  1  0
 11 29  1  0
 12 30  1  0
 12 31  1  0
 12 32  1  0
 13 14  1  0
 13 33  1  0
 13 34  1  0
 14 15  2  0
M  END

