
     RDKit          3D

 47 48  0  0  0  0  0  0  0  0999 V2000
    4.0954    2.6351    0.1613 C   0  0  0  0  0  0  0  0  0  0  0  0
    3.8818    1.1221    0.0088 C   0  0  1  0  0  0  0  0  0  0  0  0
    4.0935    0.6650   -1.4422 C   0  0  0  0  0  0  0  0  0  0  0  0
    4.8646    0.3759    0.9227 C   0  0  0  0  0  0  0  0  0  0  0  0
    6.0709    0.4997    0.7877 O   0  0  0  0  0  0  0  0  0  0  0  0
    4.2743   -0.4201    1.8745 N   0  0  0  0  0  0  0  0  0  0  0  0
    4.8791   -1.2330    2.8566 C   0  0  0  0  0  0  0  0  0  0  0  0
    6.2704   -1.3532    3.0152 C   0  0  0  0  0  0  0  0  0  0  0  0
    6.7818   -2.1798    4.0130 C   0  0  0  0  0  0  0  0  0  0  0  0
    5.9464   -2.9095    4.8771 C   0  0  0  0  0  0  0  0  0  0  0  0
    6.5624   -3.7128    5.8566 N   0  0  0  0  0  0  0  0  0  0  0  0
    5.9572   -4.5275    6.7996 C   0  0  0  0  0  0  0  0  0  0  0  0
    4.7457   -4.7007    6.8589 O   0  0  0  0  0  0  0  0  0  0  0  0
    6.8324   -5.1396    7.6817 N   0  0  0  0  0  0  0  0  0  0  0  0
    8.2441   -4.8220    7.7797 C   0  0  0  0  0  0  0  0  0  0  0  0
    6.2947   -6.1547    8.5883 C   0  0  0  0  0  0  0  0  0  0  0  0
    6.1370   -5.6773   10.0207 C   0  0  0  0  0  0  0  0  0  0  0  0
    5.2228   -4.6524   10.3227 C   0  0  0  0  0  0  0  0  0  0  0  0
    5.0734   -4.2010   11.6347 C   0  0  0  0  0  0  0  0  0  0  0  0
    5.8325   -4.7663   12.6671 C   0  0  0  0  0  0  0  0  0  0  0  0
    6.7400   -5.7874   12.3784 C   0  0  0  0  0  0  0  0  0  0  0  0
    6.8898   -6.2379   11.0612 C   0  0  0  0  0  0  0  0  0  0  0  0
    4.5547   -2.7899    4.7157 C   0  0  0  0  0  0  0  0  0  0  0  0
    4.0433   -1.9612    3.7193 C   0  0  0  0  0  0  0  0  0  0  0  0
    3.4292    3.1934   -0.5153 H   0  0  0  0  0  0  0  0  0  0  0  0
    5.1375    2.8927   -0.0816 H   0  0  0  0  0  0  0  0  0  0  0  0
    3.8949    2.9702    1.1916 H   0  0  0  0  0  0  0  0  0  0  0  0
    2.8463    0.8789    0.3085 H   0  0  0  0  0  0  0  0  0  0  0  0
    5.1350    0.8514   -1.7458 H   0  0  0  0  0  0  0  0  0  0  0  0
    3.4258    1.2135   -2.1254 H   0  0  0  0  0  0  0  0  0  0  0  0
    3.8936   -0.4120   -1.5605 H   0  0  0  0  0  0  0  0  0  0  0  0
    3.2616   -0.4312    1.8766 H   0  0  0  0  0  0  0  0  0  0  0  0
    6.9331   -0.7974    2.3562 H   0  0  0  0  0  0  0  0  0  0  0  0
    7.8685   -2.2573    4.1217 H   0  0  0  0  0  0  0  0  0  0  0  0
    7.5721   -3.7234    5.8091 H   0  0  0  0  0  0  0  0  0  0  0  0
    8.8632   -5.3527    7.0292 H   0  0  0  0  0  0  0  0  0  0  0  0
    8.6092   -5.1078    8.7765 H   0  0  0  0  0  0  0  0  0  0  0  0
    8.4220   -3.7390    7.6828 H   0  0  0  0  0  0  0  0  0  0  0  0
    6.9532   -7.0399    8.5610 H   0  0  0  0  0  0  0  0  0  0  0  0
    5.3170   -6.4477    8.1842 H   0  0  0  0  0  0  0  0  0  0  0  0
    4.6245   -4.2220    9.5152 H   0  0  0  0  0  0  0  0  0  0  0  0
    4.3559   -3.4065   11.8569 H   0  0  0  0  0  0  0  0  0  0  0  0
    5.7127   -4.4119   13.6943 H   0  0  0  0  0  0  0  0  0  0  0  0
    7.3347   -6.2363   13.1784 H   0  0  0  0  0  0  0  0  0  0  0  0
    7.5983   -7.0429   10.8416 H   0  0  0  0  0  0  0  0  0  0  0  0
    3.8915   -3.3520    5.3682 H   0  0  0  0  0  0  0  0  0  0  0  0
    2.9567   -1.8832    3.6104 H   0  0  0  0  0  0  0  0  0  0  0  0
  1  2  1  0
  1 25  1  0
  1 26  1  0
  1 27  1  0
  2  3  1  0
  2  4  1  0
  2 28  1  1
  3 29  1  0
  3 30  1  0
  3 31  1  0
  4  5  2  0
  4  6  1  0
  6  7  1  0
  6 32  1  0
  7  8  2  0
  7 24  1  0
  8  9  1  0
  8 33  1  0
  9 10  2  0
  9 34  1  0
 10 11  1  0
 10 23  1  0
 11 12  1  0
 11 35  1  0
 12 13  2  0
 12 14  1  0
 14 15  1  0
 14 16  1  0
 15 36  1  0
 15 37  1  0
 15 38  1  0
 16 17  1  0
 16 39  1  0
 16 40  1  0
 17 18  2  0
 17 22  1  0
 18 19  1  0
 18 41  1  0
 19 20  2  0
 19 42  1  0
 20 21  1  0
 20 43  1  0
 21 22  2  0
 21 44  1  0
 22 45  1  0
 23 24  2  0
 23 46  1  0
 24 47  1  0
M  END

