
     RDKit          3D

 48 48  0  0  0  0  0  0  0  0999 V2000
    2.6420    0.4628    3.0653 C   0  0  0  0  0  0  0  0  0  0  0  0
    2.6969    0.0132    1.6144 C   0  0  0  0  0  0  0  0  0  0  0  0
    3.2074   -1.3224    1.4746 O   0  0  0  0  0  0  0  0  0  0  0  0
    4.5565   -1.4628    1.4325 C   0  0  0  0  0  0  0  0  0  0  0  0
    5.2831   -0.4903    1.5356 O   0  0  0  0  0  0  0  0  0  0  0  0
    4.9795   -2.7683    1.2617 N   0  0  0  0  0  0  0  0  0  0  0  0
    3.9945   -3.9180    1.4276 C   0  0  1  0  0  0  0  0  0  0  0  0
    3.4180   -3.9282    2.8605 C   0  0  0  0  0  0  0  0  0  0  0  0
    2.8412   -3.8219    0.3974 C   0  0  0  0  0  0  0  0  0  0  0  0
    4.6445   -5.2984    1.1306 C   0  0  0  0  0  0  0  0  0  0  0  0
    6.1066   -5.5290    1.5110 C   0  0  2  0  0  0  0  0  0  0  0  0
    6.4627   -5.7665    2.9184 N   0  0  0  0  0  0  0  0  0  0  0  0
    5.8804   -6.9162    3.4540 N   0  0  0  0  0  0  0  0  0  0  0  0
    5.2192   -6.8940    4.6239 C   0  0  0  0  0  0  0  0  0  0  0  0
    4.9013   -5.8789    5.2398 O   0  0  0  0  0  0  0  0  0  0  0  0
    4.9080   -8.3136    5.1327 C   0  0  0  0  0  0  0  0  0  0  0  0
    4.1786   -8.2883    6.2647 N   0  0  0  0  0  0  0  0  0  0  0  0
    5.2980   -9.3084    4.5418 O   0  0  0  0  0  0  0  0  0  0  0  0
    6.9041   -4.3849    0.9085 C   0  0  0  0  0  0  0  0  0  0  0  0
    6.4890   -2.9428    1.2841 C   0  0  1  0  0  0  0  0  0  0  0  0
    7.1601   -2.0633    0.2007 C   0  0  0  0  0  0  0  0  0  0  0  0
    7.0494   -2.5598    2.6741 C   0  0  0  0  0  0  0  0  0  0  0  0
    2.1857    1.4642    3.1287 H   0  0  0  0  0  0  0  0  0  0  0  0
    3.6541    0.5206    3.4911 H   0  0  0  0  0  0  0  0  0  0  0  0
    2.0364   -0.2269    3.6743 H   0  0  0  0  0  0  0  0  0  0  0  0
    3.3164    0.6980    1.0181 H   0  0  0  0  0  0  0  0  0  0  0  0
    1.6887   -0.0324    1.1756 H   0  0  0  0  0  0  0  0  0  0  0  0
    2.9357   -2.9732    3.1005 H   0  0  0  0  0  0  0  0  0  0  0  0
    4.1798   -4.1414    3.6223 H   0  0  0  0  0  0  0  0  0  0  0  0
    2.6550   -4.7185    2.9450 H   0  0  0  0  0  0  0  0  0  0  0  0
    2.1223   -3.0336    0.6341 H   0  0  0  0  0  0  0  0  0  0  0  0
    2.3036   -4.7832    0.3752 H   0  0  0  0  0  0  0  0  0  0  0  0
    3.2454   -3.6376   -0.6104 H   0  0  0  0  0  0  0  0  0  0  0  0
    4.5986   -5.4722    0.0429 H   0  0  0  0  0  0  0  0  0  0  0  0
    3.9998   -6.0666    1.5851 H   0  0  0  0  0  0  0  0  0  0  0  0
    6.4240   -6.4506    0.9911 H   0  0  0  0  0  0  0  0  0  0  0  0
    6.2124   -5.0012    3.5437 H   0  0  0  0  0  0  0  0  0  0  0  0
    6.2401   -7.8199    3.1494 H   0  0  0  0  0  0  0  0  0  0  0  0
    3.9440   -7.3865    6.6661 H   0  0  0  0  0  0  0  0  0  0  0  0
    3.9149   -9.1535    6.7186 H   0  0  0  0  0  0  0  0  0  0  0  0
    6.8160   -4.4905   -0.1847 H   0  0  0  0  0  0  0  0  0  0  0  0
    7.9709   -4.4962    1.1519 H   0  0  0  0  0  0  0  0  0  0  0  0
    6.6850   -2.2399   -0.7772 H   0  0  0  0  0  0  0  0  0  0  0  0
    8.2208   -2.3489    0.1165 H   0  0  0  0  0  0  0  0  0  0  0  0
    7.0985   -0.9971    0.4330 H   0  0  0  0  0  0  0  0  0  0  0  0
    6.5506   -3.1045    3.4895 H   0  0  0  0  0  0  0  0  0  0  0  0
    6.9059   -1.4888    2.8597 H   0  0  0  0  0  0  0  0  0  0  0  0
    8.1261   -2.7830    2.7266 H   0  0  0  0  0  0  0  0  0  0  0  0
  1  2  1  0
  1 23  1  0
  1 24  1  0
  1 25  1  0
  2  3  1  0
  2 26  1  0
  2 27  1  0
  3  4  1  0
  4  5  2  0
  4  6  1  0
  6  7  1  0
  6 20  1  0
  7  8  1  1
  7  9  1  0
  7 10  1  0
  8 28  1  0
  8 29  1  0
  8 30  1  0
  9 31  1  0
  9 32  1  0
  9 33  1  0
 10 11  1  0
 10 34  1  0
 10 35  1  0
 11 12  1  0
 11 19  1  0
 11 36  1  6
 12 13  1  0
 12 37  1  0
 13 14  1  0
 13 38  1  0
 14 15  2  0
 14 16  1  0
 16 17  1  0
 16 18  2  0
 17 39  1  0
 17 40  1  0
 19 20  1  0
 19 41  1  0
 19 42  1  0
 20 21  1  6
 20 22  1  0
 21 43  1  0
 21 44  1  0
 21 45  1  0
 22 46  1  0
 22 47  1  0
 22 48  1  0
M  END

