
     RDKit          3D

 58 57  0  0  0  0  0  0  0  0999 V2000
    1.1431   -9.8184    0.9484 C   0  0  0  0  0  0  0  0  0  0  0  0
    2.6689   -9.8653    1.1021 C   0  0  1  0  0  0  0  0  0  0  0  0
    3.1851  -11.3040    0.9548 C   0  0  0  0  0  0  0  0  0  0  0  0
    3.3367   -8.8884    0.1185 C   0  0  0  0  0  0  0  0  0  0  0  0
    4.8396   -8.7170    0.2940 C   0  0  0  0  0  0  0  0  0  0  0  0
    5.2831   -7.7063   -0.5824 O   0  0  0  0  0  0  0  0  0  0  0  0
    6.6649   -7.4621   -0.5357 C   0  0  0  0  0  0  0  0  0  0  0  0
    6.9847   -6.3641   -1.5359 C   0  0  0  0  0  0  0  0  0  0  0  0
    8.3662   -6.1170   -1.4867 O   0  0  0  0  0  0  0  0  0  0  0  0
    8.8067   -5.1186   -2.3708 C   0  0  0  0  0  0  0  0  0  0  0  0
   10.3134   -4.9965   -2.2943 C   0  0  0  0  0  0  0  0  0  0  0  0
   10.9113   -6.1167   -2.8950 O   0  0  0  0  0  0  0  0  0  0  0  0
   12.3124   -6.1395   -2.8098 C   0  0  0  0  0  0  0  0  0  0  0  0
   12.8063   -7.4019   -3.4961 C   0  0  0  0  0  0  0  0  0  0  0  0
   14.2087   -7.4228   -3.4156 O   0  0  0  0  0  0  0  0  0  0  0  0
   14.8100   -8.5472   -4.0071 C   0  0  0  0  0  0  0  0  0  0  0  0
   16.3173   -8.4255   -3.8400 C   0  0  0  0  0  0  0  0  0  0  0  0
   16.9261   -9.5490   -4.4281 O   0  0  0  0  0  0  0  0  0  0  0  0
   18.5764   -9.8815   -4.5130 Si  0  0  1  0  0  4  0  0  0  0  0  0
   18.6887  -11.5214   -5.4181 C   0  0  0  0  0  0  0  0  0  0  0  0
   19.4548   -8.5156   -5.4734 C   0  0  0  0  0  0  0  0  0  0  0  0
   19.2911  -10.0177   -2.7723 C   0  0  0  0  0  0  0  0  0  0  0  0
    0.6458  -10.4786    1.6774 H   0  0  0  0  0  0  0  0  0  0  0  0
    0.8384  -10.1470   -0.0603 H   0  0  0  0  0  0  0  0  0  0  0  0
    0.7535   -8.7983    1.0968 H   0  0  0  0  0  0  0  0  0  0  0  0
    2.9111   -9.5242    2.1273 H   0  0  0  0  0  0  0  0  0  0  0  0
    3.0013  -11.6852   -0.0648 H   0  0  0  0  0  0  0  0  0  0  0  0
    2.6738  -11.9807    1.6587 H   0  0  0  0  0  0  0  0  0  0  0  0
    4.2658  -11.3844    1.1507 H   0  0  0  0  0  0  0  0  0  0  0  0
    2.8784   -7.8904    0.2258 H   0  0  0  0  0  0  0  0  0  0  0  0
    3.1370   -9.2081   -0.9203 H   0  0  0  0  0  0  0  0  0  0  0  0
    5.3788   -9.6636    0.0842 H   0  0  0  0  0  0  0  0  0  0  0  0
    5.0737   -8.4453    1.3465 H   0  0  0  0  0  0  0  0  0  0  0  0
    7.2484   -8.3711   -0.7897 H   0  0  0  0  0  0  0  0  0  0  0  0
    6.9878   -7.1432    0.4771 H   0  0  0  0  0  0  0  0  0  0  0  0
    6.3993   -5.4549   -1.2845 H   0  0  0  0  0  0  0  0  0  0  0  0
    6.6660   -6.6844   -2.5491 H   0  0  0  0  0  0  0  0  0  0  0  0
    8.3532   -4.1368   -2.1159 H   0  0  0  0  0  0  0  0  0  0  0  0
    8.5157   -5.3557   -3.4148 H   0  0  0  0  0  0  0  0  0  0  0  0
   10.6155   -4.9080   -1.2305 H   0  0  0  0  0  0  0  0  0  0  0  0
   10.6249   -4.0608   -2.8059 H   0  0  0  0  0  0  0  0  0  0  0  0
   12.6548   -6.1355   -1.7544 H   0  0  0  0  0  0  0  0  0  0  0  0
   12.7650   -5.2525   -3.3005 H   0  0  0  0  0  0  0  0  0  0  0  0
   12.4609   -7.4080   -4.5504 H   0  0  0  0  0  0  0  0  0  0  0  0
   12.3582   -8.2884   -3.0025 H   0  0  0  0  0  0  0  0  0  0  0  0
   14.5643   -8.6169   -5.0868 H   0  0  0  0  0  0  0  0  0  0  0  0
   14.4626   -9.4884   -3.5335 H   0  0  0  0  0  0  0  0  0  0  0  0
   16.5499   -8.3488   -2.7600 H   0  0  0  0  0  0  0  0  0  0  0  0
   16.6521   -7.4810   -4.3114 H   0  0  0  0  0  0  0  0  0  0  0  0
   18.2446  -11.4468   -6.4239 H   0  0  0  0  0  0  0  0  0  0  0  0
   18.1493  -12.3107   -4.8699 H   0  0  0  0  0  0  0  0  0  0  0  0
   19.7372  -11.8429   -5.5325 H   0  0  0  0  0  0  0  0  0  0  0  0
   19.0256   -8.4049   -6.4829 H   0  0  0  0  0  0  0  0  0  0  0  0
   20.5284   -8.7417   -5.5873 H   0  0  0  0  0  0  0  0  0  0  0  0
   19.3763   -7.5402   -4.9652 H   0  0  0  0  0  0  0  0  0  0  0  0
   18.7668  -10.7936   -2.1904 H   0  0  0  0  0  0  0  0  0  0  0  0
   19.2080   -9.0677   -2.2188 H   0  0  0  0  0  0  0  0  0  0  0  0
   20.3604  -10.2869   -2.8050 H   0  0  0  0  0  0  0  0  0  0  0  0
  1  2  1  0
  1 23  1  0
  1 24  1  0
  1 25  1  0
  2  3  1  0
  2  4  1  0
  2 26  1  1
  3 27  1  0
  3 28  1  0
  3 29  1  0
  4  5  1  0
  4 30  1  0
  4 31  1  0
  5  6  1  0
  5 32  1  0
  5 33  1  0
  6  7  1  0
  7  8  1  0
  7 34  1  0
  7 35  1  0
  8  9  1  0
  8 36  1  0
  8 37  1  0
  9 10  1  0
 10 11  1  0
 10 38  1  0
 10 39  1  0
 11 12  1  0
 11 40  1  0
 11 41  1  0
 12 13  1  0
 13 14  1  0
 13 42  1  0
 13 43  1  0
 14 15  1  0
 14 44  1  0
 14 45  1  0
 15 16  1  0
 16 17  1  0
 16 46  1  0
 16 47  1  0
 17 18  1  0
 17 48  1  0
 17 49  1  0
 19 18  1  1
 19 20  1  0
 19 21  1  0
 19 22  1  0
 20 50  1  0
 20 51  1  0
 20 52  1  0
 21 53  1  0
 21 54  1  0
 21 55  1  0
 22 56  1  0
 22 57  1  0
 22 58  1  0
M  END

