
     RDKit          3D

 33 35  0  0  0  0  0  0  0  0999 V2000
    6.3272    3.6615   -4.5698 C   0  0  0  0  0  0  0  0  0  0  0  0
    5.9528    2.7425   -3.4252 C   0  0  1  0  0  0  0  0  0  0  0  0
    5.5001    1.8145   -3.8184 H   0  0  0  0  0  0  0  0  0  0  0  0
    7.0762    2.3988   -2.4390 C   0  0  0  0  0  0  0  0  0  0  0  0
    6.3220    2.1739   -1.1311 C   0  0  2  0  0  0  0  0  0  0  0  0
    6.8802    2.4553   -0.2302 H   0  0  0  0  0  0  0  0  0  0  0  0
    5.7257    0.4448   -0.8670 S   0  0  0  0  0  0  0  0  0  0  0  0
    7.2553   -0.2914   -0.3890 C   0  0  0  0  0  0  0  0  0  0  0  0
    8.4024    0.3040   -0.3204 N   0  0  0  0  0  0  0  0  0  0  0  0
    9.4242   -0.4909    0.0992 N   0  0  0  0  0  0  0  0  0  0  0  0
    9.0440   -1.7190    0.3518 C   0  0  0  0  0  0  0  0  0  0  0  0
    9.8698   -2.6990    0.7786 N   0  0  0  0  0  0  0  0  0  0  0  0
   11.3047   -2.4639    0.9687 C   0  0  0  0  0  0  0  0  0  0  0  0
   11.8649   -3.8823    1.1363 C   0  0  0  0  0  0  0  0  0  0  0  0
   10.6988   -4.6568    1.7708 C   0  0  0  0  0  0  0  0  0  0  0  0
    9.4619   -4.0685    1.0764 C   0  0  0  0  0  0  0  0  0  0  0  0
    7.3102   -2.0008    0.0763 S   0  0  0  0  0  0  0  0  0  0  0  0
    5.0760    3.0624   -1.2981 C   0  0  0  0  0  0  0  0  0  0  0  0
    4.3225    3.4375   -0.4481 O   0  0  0  0  0  0  0  0  0  0  0  0
    4.9453    3.3853   -2.6050 O   0  0  0  0  0  0  0  0  0  0  0  0
    7.0826    3.1776   -5.2089 H   0  0  0  0  0  0  0  0  0  0  0  0
    6.7437    4.6074   -4.1894 H   0  0  0  0  0  0  0  0  0  0  0  0
    5.4478    3.8935   -5.1889 H   0  0  0  0  0  0  0  0  0  0  0  0
    7.7456    3.2676   -2.3171 H   0  0  0  0  0  0  0  0  0  0  0  0
    7.6903    1.5456   -2.7519 H   0  0  0  0  0  0  0  0  0  0  0  0
   11.4772   -1.8361    1.8624 H   0  0  0  0  0  0  0  0  0  0  0  0
   11.7221   -1.9181    0.1087 H   0  0  0  0  0  0  0  0  0  0  0  0
   12.7804   -3.9034    1.7454 H   0  0  0  0  0  0  0  0  0  0  0  0
   12.1115   -4.3091    0.1498 H   0  0  0  0  0  0  0  0  0  0  0  0
   10.6515   -4.4525    2.8532 H   0  0  0  0  0  0  0  0  0  0  0  0
   10.7738   -5.7462    1.6401 H   0  0  0  0  0  0  0  0  0  0  0  0
    8.5647   -4.0870    1.7195 H   0  0  0  0  0  0  0  0  0  0  0  0
    9.2137   -4.6207    0.1484 H   0  0  0  0  0  0  0  0  0  0  0  0
  1  2  1  0
  1 21  1  0
  1 22  1  0
  1 23  1  0
  2  3  1  6
  2  4  1  0
  2 20  1  0
  4  5  1  0
  4 24  1  0
  4 25  1  0
  5  6  1  1
  5  7  1  0
  5 18  1  0
  7  8  1  0
  8  9  2  0
  8 17  1  0
  9 10  1  0
 10 11  2  0
 11 12  1  0
 11 17  1  0
 12 13  1  0
 12 16  1  0
 13 14  1  0
 13 26  1  0
 13 27  1  0
 14 15  1  0
 14 28  1  0
 14 29  1  0
 15 16  1  0
 15 30  1  0
 15 31  1  0
 16 32  1  0
 16 33  1  0
 18 19  2  0
 18 20  1  0
M  END

