
     RDKit          3D

 47 48  0  0  0  0  0  0  0  0999 V2000
    5.4203    0.8509    4.5494 C   0  0  0  0  0  0  0  0  0  0  0  0
    5.7886   -0.3450    4.0739 C   0  0  0  0  0  0  0  0  0  0  0  0
    6.2763   -1.4636    4.9581 C   0  0  0  0  0  0  0  0  0  0  0  0
    5.7859   -0.6861    2.5917 C   0  0  0  0  0  0  0  0  0  0  0  0
    5.1230    0.2766    1.7254 N   0  0  0  0  0  0  0  0  0  0  0  0
    3.6522    0.2726    1.7045 C   0  0  0  0  0  0  0  0  0  0  0  0
    3.0822   -0.5783    0.5695 C   0  0  0  0  0  0  0  0  0  0  0  0
    5.7738    1.2356    1.0044 C   0  0  0  0  0  0  0  0  0  0  0  0
    5.1845    2.1917    0.4921 O   0  0  0  0  0  0  0  0  0  0  0  0
    7.1588    1.0608    0.8180 N   0  0  0  0  0  0  0  0  0  0  0  0
    7.6380   -0.0101   -0.0881 C   0  0  1  0  0  0  0  0  0  0  0  0
    6.7796   -0.3100   -1.3334 C   0  0  0  0  0  0  0  0  0  0  0  0
    6.9275   -1.3431   -1.9310 O   0  0  0  0  0  0  0  0  0  0  0  0
    5.9288    0.6324   -1.7720 O   0  0  0  0  0  0  0  0  0  0  0  0
    9.0479    0.4834   -0.5542 C   0  0  0  0  0  0  0  0  0  0  0  0
    9.3616    1.6447    0.3905 C   0  0  1  0  0  0  0  0  0  0  0  0
   10.3803    2.7064   -0.0182 C   0  0  0  0  0  0  0  0  0  0  0  0
   10.4206    3.8099    1.0559 C   0  0  0  0  0  0  0  0  0  0  0  0
    9.0277    4.3843    1.3706 C   0  0  0  0  0  0  0  0  0  0  0  0
    7.9930    3.2986    1.7236 C   0  0  0  0  0  0  0  0  0  0  0  0
    7.9788    2.2624    0.6062 C   0  0  2  0  0  0  0  0  0  0  0  0
    5.4572    1.0673    5.6206 H   0  0  0  0  0  0  0  0  0  0  0  0
    5.0724    1.6504    3.8910 H   0  0  0  0  0  0  0  0  0  0  0  0
    6.3169   -1.1598    6.0137 H   0  0  0  0  0  0  0  0  0  0  0  0
    7.2858   -1.7973    4.6585 H   0  0  0  0  0  0  0  0  0  0  0  0
    5.6196   -2.3482    4.8796 H   0  0  0  0  0  0  0  0  0  0  0  0
    5.3110   -1.6743    2.4506 H   0  0  0  0  0  0  0  0  0  0  0  0
    6.8296   -0.8067    2.2720 H   0  0  0  0  0  0  0  0  0  0  0  0
    3.3154    1.3127    1.6039 H   0  0  0  0  0  0  0  0  0  0  0  0
    3.3078   -0.0941    2.6830 H   0  0  0  0  0  0  0  0  0  0  0  0
    3.4055   -0.1930   -0.4094 H   0  0  0  0  0  0  0  0  0  0  0  0
    1.9809   -0.5617    0.5971 H   0  0  0  0  0  0  0  0  0  0  0  0
    3.4049   -1.6294    0.6461 H   0  0  0  0  0  0  0  0  0  0  0  0
    7.7253   -0.9749    0.4359 H   0  0  0  0  0  0  0  0  0  0  0  0
    5.7878    1.3771   -1.1493 H   0  0  0  0  0  0  0  0  0  0  0  0
    8.9977    0.8467   -1.5935 H   0  0  0  0  0  0  0  0  0  0  0  0
    9.7855   -0.3304   -0.5279 H   0  0  0  0  0  0  0  0  0  0  0  0
    9.6759    1.2230    1.3635 H   0  0  0  0  0  0  0  0  0  0  0  0
   10.0943    3.1388   -0.9946 H   0  0  0  0  0  0  0  0  0  0  0  0
   11.3814    2.2627   -0.1506 H   0  0  0  0  0  0  0  0  0  0  0  0
   11.0978    4.6213    0.7416 H   0  0  0  0  0  0  0  0  0  0  0  0
   10.8540    3.3874    1.9808 H   0  0  0  0  0  0  0  0  0  0  0  0
    8.6638    4.9491    0.4931 H   0  0  0  0  0  0  0  0  0  0  0  0
    9.1003    5.1135    2.1939 H   0  0  0  0  0  0  0  0  0  0  0  0
    6.9960    3.7482    1.8495 H   0  0  0  0  0  0  0  0  0  0  0  0
    8.2571    2.8040    2.6753 H   0  0  0  0  0  0  0  0  0  0  0  0
    7.6742    2.7815   -0.3272 H   0  0  0  0  0  0  0  0  0  0  0  0
  1  2  2  0
  1 22  1  0
  1 23  1  0
  2  3  1  0
  2  4  1  0
  3 24  1  0
  3 25  1  0
  3 26  1  0
  4  5  1  0
  4 27  1  0
  4 28  1  0
  5  6  1  0
  5  8  1  0
  6  7  1  0
  6 29  1  0
  6 30  1  0
  7 31  1  0
  7 32  1  0
  7 33  1  0
  8  9  2  0
  8 10  1  0
 10 11  1  0
 10 21  1  0
 11 12  1  0
 11 15  1  0
 11 34  1  1
 12 13  2  0
 12 14  1  0
 14 35  1  0
 15 16  1  0
 15 36  1  0
 15 37  1  0
 16 17  1  0
 16 21  1  0
 16 38  1  1
 17 18  1  0
 17 39  1  0
 17 40  1  0
 18 19  1  0
 18 41  1  0
 18 42  1  0
 19 20  1  0
 19 43  1  0
 19 44  1  0
 20 21  1  0
 20 45  1  0
 20 46  1  0
 21 47  1  6
M  END

