
     RDKit          3D

 66 71  0  0  0  0  0  0  0  0999 V2000
    1.3277   -0.1522    0.4893 C   0  0  0  0  0  0  0  0  0  0  0  0
    2.8066   -0.1518    0.1810 C   0  0  0  0  0  0  0  0  0  0  0  0
    3.4222    1.0776    0.0392 C   0  0  0  0  0  0  0  0  0  0  0  0
    4.7913    1.2131   -0.2976 C   0  0  0  0  0  0  0  0  0  0  0  0
    5.3145    2.4609   -0.4108 N   0  0  0  0  0  0  0  0  0  0  0  0
    6.5896    2.6050   -0.7370 C   0  0  0  0  0  0  0  0  0  0  0  0
    7.1069    3.9744   -0.8476 C   0  0  0  0  0  0  0  0  0  0  0  0
    8.4152    4.4453   -1.1634 C   0  0  0  0  0  0  0  0  0  0  0  0
    8.4795    5.7709   -1.1636 N   0  0  0  0  0  0  0  0  0  0  0  0
    7.2339    6.1676   -0.8534 N   0  0  0  0  0  0  0  0  0  0  0  0
    7.0318    7.1586   -0.7938 H   0  0  0  0  0  0  0  0  0  0  0  0
    6.3743    5.1421   -0.6542 C   0  0  0  0  0  0  0  0  0  0  0  0
    7.4382    1.4800   -0.9742 C   0  0  0  0  0  0  0  0  0  0  0  0
    6.9250    0.2104   -0.8600 C   0  0  0  0  0  0  0  0  0  0  0  0
    5.5588    0.0266   -0.5089 C   0  0  0  0  0  0  0  0  0  0  0  0
    4.9345   -1.2520   -0.3628 C   0  0  0  0  0  0  0  0  0  0  0  0
    5.7741   -2.4696   -0.6183 C   0  0  0  0  0  0  0  0  0  0  0  0
    6.4459   -3.1272    0.4025 C   0  0  0  0  0  0  0  0  0  0  0  0
    7.2489   -4.2679    0.1778 C   0  0  0  0  0  0  0  0  0  0  0  0
    7.3961   -4.7659   -1.1036 C   0  0  0  0  0  0  0  0  0  0  0  0
    6.7549   -4.1083   -2.1953 C   0  0  0  0  0  0  0  0  0  0  0  0
    6.9504   -4.5522   -3.5334 C   0  0  0  0  0  0  0  0  0  0  0  0
    6.2989   -3.8731   -4.5429 C   0  0  0  0  0  0  0  0  0  0  0  0
    5.4808   -2.7639   -4.2045 C   0  0  0  0  0  0  0  0  0  0  0  0
    5.3065   -2.3182   -2.9800 N   0  0  0  0  0  0  0  0  0  0  0  0
    5.9330   -2.9595   -1.9566 C   0  0  0  0  0  0  0  0  0  0  0  0
    7.8915   -5.7125   -3.7392 C   0  0  0  0  0  0  0  0  0  0  0  0
    7.8982   -6.6056   -2.5019 C   0  0  0  0  0  0  0  0  0  0  0  0
    8.1662   -5.8657   -1.3114 O   0  0  0  0  0  0  0  0  0  0  0  0
    3.5845   -1.3502   -0.0043 C   0  0  0  0  0  0  0  0  0  0  0  0
    3.0322   -2.7635    0.1536 C   0  0  1  0  0  0  0  0  0  0  0  0
    3.2551   -3.4728    1.3911 O   0  0  0  0  0  0  0  0  0  0  0  0
    3.0357   -3.0427    2.7695 C   0  0  1  0  0  0  0  0  0  0  0  0
    1.5412   -3.0412    3.1255 C   0  0  0  0  0  0  0  0  0  0  0  0
    3.7478   -4.1486    3.5606 C   0  0  0  0  0  0  0  0  0  0  0  0
    3.6739   -1.6883    3.0992 C   0  0  0  0  0  0  0  0  0  0  0  0
    1.6247   -3.0568   -0.4040 C   0  0  0  0  0  0  0  0  0  0  0  0
    1.1326   -2.4879   -1.3404 O   0  0  0  0  0  0  0  0  0  0  0  0
    1.0549   -4.1245    0.1750 O   0  0  0  0  0  0  0  0  0  0  0  0
    1.0285    0.8113    0.9264 H   0  0  0  0  0  0  0  0  0  0  0  0
    1.0309   -0.9430    1.1904 H   0  0  0  0  0  0  0  0  0  0  0  0
    0.7444   -0.3183   -0.4282 H   0  0  0  0  0  0  0  0  0  0  0  0
    2.8562    2.0008    0.1803 H   0  0  0  0  0  0  0  0  0  0  0  0
    9.3101    3.8661   -1.3894 H   0  0  0  0  0  0  0  0  0  0  0  0
    5.3273    5.2783   -0.3967 H   0  0  0  0  0  0  0  0  0  0  0  0
    8.4847    1.6308   -1.2442 H   0  0  0  0  0  0  0  0  0  0  0  0
    7.5619   -0.6581   -1.0351 H   0  0  0  0  0  0  0  0  0  0  0  0
    6.3474   -2.7567    1.4246 H   0  0  0  0  0  0  0  0  0  0  0  0
    7.7498   -4.7739    1.0049 H   0  0  0  0  0  0  0  0  0  0  0  0
    6.4070   -4.1727   -5.5884 H   0  0  0  0  0  0  0  0  0  0  0  0
    4.9532   -2.2250   -5.0018 H   0  0  0  0  0  0  0  0  0  0  0  0
    8.9121   -5.3264   -3.9160 H   0  0  0  0  0  0  0  0  0  0  0  0
    7.6141   -6.3000   -4.6289 H   0  0  0  0  0  0  0  0  0  0  0  0
    8.6825   -7.3724   -2.5601 H   0  0  0  0  0  0  0  0  0  0  0  0
    6.9219   -7.1156   -2.3967 H   0  0  0  0  0  0  0  0  0  0  0  0
    3.6419   -3.3698   -0.5362 H   0  0  0  0  0  0  0  0  0  0  0  0
    1.0921   -4.0367    2.9871 H   0  0  0  0  0  0  0  0  0  0  0  0
    0.9684   -2.3235    2.5232 H   0  0  0  0  0  0  0  0  0  0  0  0
    1.4104   -2.7622    4.1826 H   0  0  0  0  0  0  0  0  0  0  0  0
    3.3360   -5.1352    3.2993 H   0  0  0  0  0  0  0  0  0  0  0  0
    3.6228   -3.9944    4.6433 H   0  0  0  0  0  0  0  0  0  0  0  0
    4.8226   -4.1566    3.3271 H   0  0  0  0  0  0  0  0  0  0  0  0
    3.1450   -0.8442    2.6413 H   0  0  0  0  0  0  0  0  0  0  0  0
    4.7214   -1.6522    2.7697 H   0  0  0  0  0  0  0  0  0  0  0  0
    3.6543   -1.5418    4.1906 H   0  0  0  0  0  0  0  0  0  0  0  0
    1.6860   -4.4192    0.8625 H   0  0  0  0  0  0  0  0  0  0  0  0
  1  2  1  0
  1 40  1  0
  1 41  1  0
  1 42  1  0
  2  3  2  0
  2 30  1  0
  3  4  1  0
  3 43  1  0
  4  5  2  0
  4 15  1  0
  5  6  1  0
  6  7  1  0
  6 13  2  0
  7  8  1  0
  7 12  2  0
  8  9  2  0
  8 44  1  0
  9 10  1  0
 10 11  1  0
 10 12  1  0
 12 45  1  0
 13 14  1  0
 13 46  1  0
 14 15  2  0
 14 47  1  0
 15 16  1  0
 16 17  1  0
 16 30  2  0
 17 18  2  0
 17 26  1  0
 18 19  1  0
 18 48  1  0
 19 20  2  0
 19 49  1  0
 20 21  1  0
 20 29  1  0
 21 22  1  0
 21 26  2  0
 22 23  2  0
 22 27  1  0
 23 24  1  0
 23 50  1  0
 24 25  2  0
 24 51  1  0
 25 26  1  0
 27 28  1  0
 27 52  1  0
 27 53  1  0
 28 29  1  0
 28 54  1  0
 28 55  1  0
 30 31  1  0
 31 32  1  0
 31 37  1  0
 31 56  1  6
 33 32  1  6
 33 34  1  0
 33 35  1  0
 33 36  1  0
 34 57  1  0
 34 58  1  0
 34 59  1  0
 35 60  1  0
 35 61  1  0
 35 62  1  0
 36 63  1  0
 36 64  1  0
 36 65  1  0
 37 38  2  0
 37 39  1  0
 39 66  1  0
M  END

