
     RDKit          3D

 26 27  0  0  0  0  0  0  0  0999 V2000
    0.8902    0.0577    0.7074 C   0  0  0  0  0  0  0  0  0  0  0  0
    2.2272   -0.0182    0.2550 O   0  0  0  0  0  0  0  0  0  0  0  0
    2.8724    1.1061   -0.1082 C   0  0  0  0  0  0  0  0  0  0  0  0
    2.3024    2.3786   -0.1038 C   0  0  0  0  0  0  0  0  0  0  0  0
    3.0642    3.4868   -0.5072 C   0  0  0  0  0  0  0  0  0  0  0  0
    2.4752    4.7429   -0.4916 N   0  0  0  0  0  0  0  0  0  0  0  0
    1.5127    4.8439   -0.1899 H   0  0  0  0  0  0  0  0  0  0  0  0
    3.0912    5.9253   -0.8587 C   0  0  0  0  0  0  0  0  0  0  0  0
    2.5327    7.0007   -0.8275 O   0  0  0  0  0  0  0  0  0  0  0  0
    4.4027    5.7469   -1.2621 N   0  0  0  0  0  0  0  0  0  0  0  0
    4.8957    6.5911   -1.5416 H   0  0  0  0  0  0  0  0  0  0  0  0
    5.1546    4.5625   -1.3408 C   0  0  0  0  0  0  0  0  0  0  0  0
    6.3027    4.6155   -1.7246 O   0  0  0  0  0  0  0  0  0  0  0  0
    4.4083    3.3486   -0.9241 C   0  0  0  0  0  0  0  0  0  0  0  0
    4.9632    2.0405   -0.9231 C   0  0  0  0  0  0  0  0  0  0  0  0
    6.5971    1.7287   -1.4180 Cl  0  0  0  0  0  0  0  0  0  0  0  0
    4.2244    0.9287   -0.5087 C   0  0  0  0  0  0  0  0  0  0  0  0
    4.7840   -0.3058   -0.4364 O   0  0  0  0  0  0  0  0  0  0  0  0
    4.5566   -1.1695   -1.5434 C   0  0  0  0  0  0  0  0  0  0  0  0
    0.5890   -0.9678    0.9570 H   0  0  0  0  0  0  0  0  0  0  0  0
    0.2164    0.4505   -0.0743 H   0  0  0  0  0  0  0  0  0  0  0  0
    0.8031    0.6875    1.6099 H   0  0  0  0  0  0  0  0  0  0  0  0
    1.2696    2.5309    0.2076 H   0  0  0  0  0  0  0  0  0  0  0  0
    5.0731   -2.1126   -1.3184 H   0  0  0  0  0  0  0  0  0  0  0  0
    4.9746   -0.7441   -2.4721 H   0  0  0  0  0  0  0  0  0  0  0  0
    3.4811   -1.3723   -1.6814 H   0  0  0  0  0  0  0  0  0  0  0  0
  1  2  1  0
  1 20  1  0
  1 21  1  0
  1 22  1  0
  2  3  1  0
  3  4  2  0
  3 17  1  0
  4  5  1  0
  4 23  1  0
  5  6  1  0
  5 14  2  0
  6  7  1  0
  6  8  1  0
  8  9  2  0
  8 10  1  0
 10 11  1  0
 10 12  1  0
 12 13  2  0
 12 14  1  0
 14 15  1  0
 15 16  1  0
 15 17  2  0
 17 18  1  0
 18 19  1  0
 19 24  1  0
 19 25  1  0
 19 26  1  0
M  END

