
     RDKit          3D

 46 47  0  0  0  0  0  0  0  0999 V2000
    1.0113    1.5912   -0.4939 C   0  0  0  0  0  0  0  0  0  0  0  0
    2.4994    1.8689   -0.6293 C   0  0  0  0  0  0  0  0  0  0  0  0
    3.1432    0.6487   -0.9461 O   0  0  0  0  0  0  0  0  0  0  0  0
    4.5821    0.5895   -1.0329 C   0  0  1  0  0  0  0  0  0  0  0  0
    5.1536    0.7336    0.4239 C   0  0  1  0  0  0  0  0  0  0  0  0
    4.5054   -0.1371    1.3982 N   0  0  0  0  0  0  0  0  0  0  0  0
    6.6848    0.5447    0.5380 C   0  0  0  0  0  0  0  0  0  0  0  0
    7.2542    1.1004    1.8232 C   0  0  0  0  0  0  0  0  0  0  0  0
    7.3240    0.2981    2.9729 C   0  0  0  0  0  0  0  0  0  0  0  0
    7.8305    0.7975    4.1727 C   0  0  0  0  0  0  0  0  0  0  0  0
    7.9029   -0.2429    5.5775 Cl  0  0  0  0  0  0  0  0  0  0  0  0
    8.2814    2.1165    4.2670 C   0  0  0  0  0  0  0  0  0  0  0  0
    8.2128    2.9332    3.1392 C   0  0  0  0  0  0  0  0  0  0  0  0
    7.7023    2.4289    1.9395 C   0  0  0  0  0  0  0  0  0  0  0  0
    7.6299    3.5171    0.5595 Cl  0  0  0  0  0  0  0  0  0  0  0  0
    4.8613   -0.7998   -1.6327 C   0  0  0  0  0  0  0  0  0  0  0  0
    4.3163   -0.9440   -3.0583 C   0  0  0  0  0  0  0  0  0  0  0  0
    4.8545    0.1543   -3.9809 C   0  0  0  0  0  0  0  0  0  0  0  0
    4.5820    1.5606   -3.4224 C   0  0  2  0  0  0  0  0  0  0  0  0
    5.1559    2.6574   -4.3233 C   0  0  0  0  0  0  0  0  0  0  0  0
    5.1256    1.6743   -1.9863 C   0  0  0  0  0  0  0  0  0  0  0  0
    0.4650    2.5186   -0.2602 H   0  0  0  0  0  0  0  0  0  0  0  0
    0.8187    0.8629    0.3094 H   0  0  0  0  0  0  0  0  0  0  0  0
    0.6086    1.1761   -1.4308 H   0  0  0  0  0  0  0  0  0  0  0  0
    2.8893    2.3016    0.3126 H   0  0  0  0  0  0  0  0  0  0  0  0
    2.6667    2.6259   -1.4189 H   0  0  0  0  0  0  0  0  0  0  0  0
    4.9423    1.7726    0.7306 H   0  0  0  0  0  0  0  0  0  0  0  0
    4.6835   -1.1154    1.1656 H   0  0  0  0  0  0  0  0  0  0  0  0
    3.4941   -0.0235    1.3387 H   0  0  0  0  0  0  0  0  0  0  0  0
    7.1895    1.0241   -0.3101 H   0  0  0  0  0  0  0  0  0  0  0  0
    6.9157   -0.5318    0.4833 H   0  0  0  0  0  0  0  0  0  0  0  0
    6.9660   -0.7304    2.9285 H   0  0  0  0  0  0  0  0  0  0  0  0
    8.6791    2.4971    5.2089 H   0  0  0  0  0  0  0  0  0  0  0  0
    8.5561    3.9679    3.1840 H   0  0  0  0  0  0  0  0  0  0  0  0
    4.4136   -1.5658   -0.9793 H   0  0  0  0  0  0  0  0  0  0  0  0
    5.9513   -0.9703   -1.6380 H   0  0  0  0  0  0  0  0  0  0  0  0
    3.2164   -0.8896   -3.0229 H   0  0  0  0  0  0  0  0  0  0  0  0
    4.5748   -1.9395   -3.4566 H   0  0  0  0  0  0  0  0  0  0  0  0
    4.4135    0.0586   -4.9881 H   0  0  0  0  0  0  0  0  0  0  0  0
    5.9471    0.0278   -4.1087 H   0  0  0  0  0  0  0  0  0  0  0  0
    3.4855    1.6905   -3.3817 H   0  0  0  0  0  0  0  0  0  0  0  0
    6.2538    2.5746   -4.4004 H   0  0  0  0  0  0  0  0  0  0  0  0
    4.9264    3.6627   -3.9331 H   0  0  0  0  0  0  0  0  0  0  0  0
    4.7458    2.5927   -5.3444 H   0  0  0  0  0  0  0  0  0  0  0  0
    4.9242    2.6780   -1.5759 H   0  0  0  0  0  0  0  0  0  0  0  0
    6.2241    1.5902   -2.0269 H   0  0  0  0  0  0  0  0  0  0  0  0
  1  2  1  0
  1 22  1  0
  1 23  1  0
  1 24  1  0
  2  3  1  0
  2 25  1  0
  2 26  1  0
  4  3  1  1
  4  5  1  0
  4 16  1  0
  4 21  1  0
  5  6  1  0
  5  7  1  0
  5 27  1  1
  6 28  1  0
  6 29  1  0
  7  8  1  0
  7 30  1  0
  7 31  1  0
  8  9  2  0
  8 14  1  0
  9 10  1  0
  9 32  1  0
 10 11  1  0
 10 12  2  0
 12 13  1  0
 12 33  1  0
 13 14  2  0
 13 34  1  0
 14 15  1  0
 16 17  1  0
 16 35  1  0
 16 36  1  0
 17 18  1  0
 17 37  1  0
 17 38  1  0
 18 19  1  0
 18 39  1  0
 18 40  1  0
 19 20  1  0
 19 21  1  0
 19 41  1  1
 20 42  1  0
 20 43  1  0
 20 44  1  0
 21 45  1  0
 21 46  1  0
M  END

