
     RDKit          3D

 40 42  0  0  0  0  0  0  0  0999 V2000
    1.8534    1.1538   -0.8930 O   0  0  0  0  0  0  0  0  0  0  0  0
    2.7939    0.5342   -0.4562 C   0  0  0  0  0  0  0  0  0  0  0  0
    3.2382    0.8441    0.7827 O   0  0  0  0  0  0  0  0  0  0  0  0
    4.2187    0.0863    1.5330 C   0  0  1  0  0  0  0  0  0  0  0  0
    4.7611    1.0673    2.5818 C   0  0  0  0  0  0  0  0  0  0  0  0
    5.6585    0.3900    3.6268 C   0  0  0  0  0  0  0  0  0  0  0  0
    4.9749   -0.8004    4.3273 C   0  0  1  0  0  0  0  0  0  0  0  0
    3.9335   -0.3501    5.3671 C   0  0  0  0  0  0  0  0  0  0  0  0
    4.4642    0.5207    6.3445 O   0  0  0  0  0  0  0  0  0  0  0  0
    4.3779   -1.7732    3.2919 C   0  0  0  0  0  0  0  0  0  0  0  0
    3.4958   -1.0736    2.2459 C   0  0  0  0  0  0  0  0  0  0  0  0
    5.2816   -0.3536    0.5299 C   0  0  0  0  0  0  0  0  0  0  0  0
    4.6619   -1.1451   -0.6060 C   0  0  0  0  0  0  0  0  0  0  0  0
    3.4680   -0.4719   -1.1517 N   0  0  0  0  0  0  0  0  0  0  0  0
    2.9935   -0.9820   -2.3942 C   0  0  0  0  0  0  0  0  0  0  0  0
    1.9903   -0.3687   -3.1786 C   0  0  0  0  0  0  0  0  0  0  0  0
    1.6340   -0.9822   -4.3760 C   0  0  0  0  0  0  0  0  0  0  0  0
    2.2628   -2.1654   -4.7771 C   0  0  0  0  0  0  0  0  0  0  0  0
    3.2455   -2.6812   -3.9356 C   0  0  0  0  0  0  0  0  0  0  0  0
    3.5970   -2.1089   -2.7830 N   0  0  0  0  0  0  0  0  0  0  0  0
    3.8926    1.5399    3.0680 H   0  0  0  0  0  0  0  0  0  0  0  0
    5.3050    1.8784    2.0712 H   0  0  0  0  0  0  0  0  0  0  0  0
    5.9577    1.1290    4.3856 H   0  0  0  0  0  0  0  0  0  0  0  0
    6.5891    0.0392    3.1476 H   0  0  0  0  0  0  0  0  0  0  0  0
    5.7520   -1.3502    4.8928 H   0  0  0  0  0  0  0  0  0  0  0  0
    3.4772   -1.2498    5.8289 H   0  0  0  0  0  0  0  0  0  0  0  0
    3.1117    0.2059    4.8886 H   0  0  0  0  0  0  0  0  0  0  0  0
    5.1495    0.0450    6.8328 H   0  0  0  0  0  0  0  0  0  0  0  0
    3.7896   -2.5568    3.7997 H   0  0  0  0  0  0  0  0  0  0  0  0
    5.2023   -2.3025    2.7836 H   0  0  0  0  0  0  0  0  0  0  0  0
    2.6014   -0.6429    2.7240 H   0  0  0  0  0  0  0  0  0  0  0  0
    3.1233   -1.8073    1.5134 H   0  0  0  0  0  0  0  0  0  0  0  0
    6.0601   -0.9676    1.0061 H   0  0  0  0  0  0  0  0  0  0  0  0
    5.7779    0.5506    0.1396 H   0  0  0  0  0  0  0  0  0  0  0  0
    4.3936   -2.1655   -0.2890 H   0  0  0  0  0  0  0  0  0  0  0  0
    5.3804   -1.2768   -1.4252 H   0  0  0  0  0  0  0  0  0  0  0  0
    1.5182    0.5491   -2.8452 H   0  0  0  0  0  0  0  0  0  0  0  0
    0.8611   -0.5253   -4.9998 H   0  0  0  0  0  0  0  0  0  0  0  0
    2.0036   -2.6678   -5.7112 H   0  0  0  0  0  0  0  0  0  0  0  0
    3.7782   -3.6031   -4.1989 H   0  0  0  0  0  0  0  0  0  0  0  0
  1  2  2  0
  2  3  1  0
  2 14  1  0
  4  3  1  6
  4  5  1  0
  4 11  1  0
  4 12  1  0
  5  6  1  0
  5 21  1  0
  5 22  1  0
  6  7  1  0
  6 23  1  0
  6 24  1  0
  7  8  1  0
  7 10  1  0
  7 25  1  1
  8  9  1  0
  8 26  1  0
  8 27  1  0
  9 28  1  0
 10 11  1  0
 10 29  1  0
 10 30  1  0
 11 31  1  0
 11 32  1  0
 12 13  1  0
 12 33  1  0
 12 34  1  0
 13 14  1  0
 13 35  1  0
 13 36  1  0
 14 15  1  0
 15 16  2  0
 15 20  1  0
 16 17  1  0
 16 37  1  0
 17 18  2  0
 17 38  1  0
 18 19  1  0
 18 39  1  0
 19 20  2  0
 19 40  1  0
M  END

