
     RDKit          3D

 69 74  0  0  0  0  0  0  0  0999 V2000
    1.2433    2.6020   -2.1461 C   0  0  0  0  0  0  0  0  0  0  0  0
    2.5369    2.5397   -1.3235 C   0  0  1  0  0  0  0  0  0  0  0  0
    2.3146    2.0803   -0.3474 H   0  0  0  0  0  0  0  0  0  0  0  0
    3.6295    1.6900   -2.0269 C   0  0  0  0  0  0  0  0  0  0  0  0
    4.7812    1.2566   -1.1053 C   0  0  0  0  0  0  0  0  0  0  0  0
    6.0641    0.7940   -1.8337 C   0  0  0  0  0  0  0  0  0  0  0  0
    7.3162    1.6973   -1.6634 C   0  0  2  0  0  0  0  0  0  0  0  0
    8.1496    1.1788   -2.1710 H   0  0  0  0  0  0  0  0  0  0  0  0
    7.7195    2.0002   -0.2734 N   0  0  0  0  0  0  0  0  0  0  0  0
    8.8863    2.8924   -0.1371 C   0  0  0  0  0  0  0  0  0  0  0  0
    8.8509    3.6914    1.1578 C   0  0  0  0  0  0  0  0  0  0  0  0
    8.6226    2.7659    2.3271 C   0  0  0  0  0  0  0  0  0  0  0  0
    9.0065    3.2151    3.6989 C   0  0  0  0  0  0  0  0  0  0  0  0
    8.1130    4.0083    4.4346 C   0  0  0  0  0  0  0  0  0  0  0  0
    8.4233    4.4184    5.7336 C   0  0  0  0  0  0  0  0  0  0  0  0
    7.2814    5.3907    6.6233 Cl  0  0  0  0  0  0  0  0  0  0  0  0
    9.6336    4.0543    6.3298 C   0  0  0  0  0  0  0  0  0  0  0  0
   10.5373    3.2823    5.6030 C   0  0  0  0  0  0  0  0  0  0  0  0
   10.2319    2.8651    4.3020 C   0  0  0  0  0  0  0  0  0  0  0  0
   11.1854    2.0747    3.5947 N   0  0  0  0  0  0  0  0  0  0  0  0
   11.8329    0.9518    4.0137 C   0  0  0  0  0  0  0  0  0  0  0  0
   12.6406    0.6300    2.9395 C   0  0  0  0  0  0  0  0  0  0  0  0
   13.7272   -0.6922    2.7906 Cl  0  0  0  0  0  0  0  0  0  0  0  0
   12.4553    1.5392    1.9532 N   0  0  0  0  0  0  0  0  0  0  0  0
   11.5811    2.4116    2.3491 N   0  0  0  0  0  0  0  0  0  0  0  0
    8.0253    1.5819    2.1132 C   0  0  0  0  0  0  0  0  0  0  0  0
    7.4811    1.1456    0.7901 C   0  0  0  0  0  0  0  0  0  0  0  0
    6.8319    0.1110    0.7303 O   0  0  0  0  0  0  0  0  0  0  0  0
    7.1250    2.9926   -2.4571 C   0  0  0  0  0  0  0  0  0  0  0  0
    6.3329    4.0491   -1.9816 C   0  0  0  0  0  0  0  0  0  0  0  0
    6.1201    5.1726   -2.7924 C   0  0  0  0  0  0  0  0  0  0  0  0
    6.7558    5.2114   -4.0442 C   0  0  0  0  0  0  0  0  0  0  0  0
    7.5363    4.1173   -4.4202 C   0  0  0  0  0  0  0  0  0  0  0  0
    7.7091    3.0325   -3.6609 N   0  0  0  0  0  0  0  0  0  0  0  0
    5.1659    6.2087   -2.3474 C   0  0  0  0  0  0  0  0  0  0  0  0
    3.8337    6.0494   -1.9730 C   0  0  0  0  0  0  0  0  0  0  0  0
    3.3753    7.3546   -1.6495 C   0  0  0  0  0  0  0  0  0  0  0  0
    4.3310    8.2526   -1.8027 N   0  0  0  0  0  0  0  0  0  0  0  0
    5.4098    7.5564   -2.2284 N   0  0  0  0  0  0  0  0  0  0  0  0
    6.6112    8.2933   -2.4769 C   0  0  1  0  0  0  0  0  0  0  0  0
    7.6641    7.6892   -1.8939 F   0  0  0  0  0  0  0  0  0  0  0  0
    6.8743    8.3602   -3.8054 F   0  0  0  0  0  0  0  0  0  0  0  0
    3.1022    4.8430   -1.9884 N   0  0  0  0  0  0  0  0  0  0  0  0
    3.1379    3.9058   -0.9745 C   0  0  0  0  0  0  0  0  0  0  0  0
    3.6903    4.1276    0.0883 O   0  0  0  0  0  0  0  0  0  0  0  0
    0.4953    3.2708   -1.6921 H   0  0  0  0  0  0  0  0  0  0  0  0
    0.7955    1.5988   -2.2205 H   0  0  0  0  0  0  0  0  0  0  0  0
    1.4208    2.9390   -3.1828 H   0  0  0  0  0  0  0  0  0  0  0  0
    4.0201    2.2665   -2.8844 H   0  0  0  0  0  0  0  0  0  0  0  0
    3.1475    0.7974   -2.4638 H   0  0  0  0  0  0  0  0  0  0  0  0
    4.4310    0.4414   -0.4541 H   0  0  0  0  0  0  0  0  0  0  0  0
    5.0138    2.0753   -0.4103 H   0  0  0  0  0  0  0  0  0  0  0  0
    5.8926    0.7449   -2.9230 H   0  0  0  0  0  0  0  0  0  0  0  0
    6.3302   -0.2171   -1.5097 H   0  0  0  0  0  0  0  0  0  0  0  0
    8.9097    3.5757   -0.9941 H   0  0  0  0  0  0  0  0  0  0  0  0
    9.8207    2.3007   -0.1693 H   0  0  0  0  0  0  0  0  0  0  0  0
    8.0500    4.4551    1.1313 H   0  0  0  0  0  0  0  0  0  0  0  0
    9.8062    4.2217    1.2819 H   0  0  0  0  0  0  0  0  0  0  0  0
    7.1550    4.2898    3.9946 H   0  0  0  0  0  0  0  0  0  0  0  0
    9.8675    4.3834    7.3430 H   0  0  0  0  0  0  0  0  0  0  0  0
   11.4996    3.0118    6.0422 H   0  0  0  0  0  0  0  0  0  0  0  0
   11.6614    0.4792    4.9754 H   0  0  0  0  0  0  0  0  0  0  0  0
    7.8210    0.8735    2.9188 H   0  0  0  0  0  0  0  0  0  0  0  0
    5.8849    4.0046   -0.9889 H   0  0  0  0  0  0  0  0  0  0  0  0
    6.6383    6.0651   -4.7123 H   0  0  0  0  0  0  0  0  0  0  0  0
    8.0422    4.1169   -5.3929 H   0  0  0  0  0  0  0  0  0  0  0  0
    2.3839    7.6504   -1.3074 H   0  0  0  0  0  0  0  0  0  0  0  0
    6.4678    9.3080   -2.0778 H   0  0  0  0  0  0  0  0  0  0  0  0
    2.6277    4.5957   -2.8497 H   0  0  0  0  0  0  0  0  0  0  0  0
  1  2  1  0
  1 46  1  0
  1 47  1  0
  1 48  1  0
  2  3  1  1
  2  4  1  0
  2 44  1  0
  4  5  1  0
  4 49  1  0
  4 50  1  0
  5  6  1  0
  5 51  1  0
  5 52  1  0
  6  7  1  0
  6 53  1  0
  6 54  1  0
  7  8  1  6
  7  9  1  0
  7 29  1  0
  9 10  1  0
  9 27  1  0
 10 11  1  0
 10 55  1  0
 10 56  1  0
 11 12  1  0
 11 57  1  0
 11 58  1  0
 12 13  1  0
 12 26  2  0
 13 14  2  0
 13 19  1  0
 14 15  1  0
 14 59  1  0
 15 16  1  0
 15 17  2  0
 17 18  1  0
 17 60  1  0
 18 19  2  0
 18 61  1  0
 19 20  1  0
 20 21  1  0
 20 25  1  0
 21 22  2  0
 21 62  1  0
 22 23  1  0
 22 24  1  0
 24 25  2  0
 26 27  1  0
 26 63  1  0
 27 28  2  0
 29 30  1  0
 29 34  2  0
 30 31  2  0
 30 64  1  0
 31 32  1  0
 31 35  1  0
 32 33  2  0
 32 65  1  0
 33 34  1  0
 33 66  1  0
 35 36  2  0
 35 39  1  0
 36 37  1  0
 36 43  1  0
 37 38  2  0
 37 67  1  0
 38 39  1  0
 39 40  1  0
 40 41  1  0
 40 42  1  0
 40 68  1  1
 43 44  1  0
 43 69  1  0
 44 45  2  0
M  END

