
     RDKit          3D

 36 37  0  0  0  0  0  0  0  0999 V2000
    1.3792   -2.9730    2.9456 C   0  0  0  0  0  0  0  0  0  0  0  0
    2.7298   -2.4058    2.5091 C   0  0  0  0  0  0  0  0  0  0  0  0
    2.6794   -1.7105    1.1338 C   0  0  0  0  0  0  0  0  0  0  0  0
    3.9967   -1.1840    0.6503 C   0  0  0  0  0  0  0  0  0  0  0  0
    4.9641   -1.8342   -0.1164 C   0  0  0  0  0  0  0  0  0  0  0  0
    4.9306   -3.1539   -0.5918 N   0  0  0  0  0  0  0  0  0  0  0  0
    6.0182   -0.8974   -0.2336 C   0  0  0  0  0  0  0  0  0  0  0  0
    5.7330    0.2351    0.4074 N   0  0  0  0  0  0  0  0  0  0  0  0
    4.5227    0.0583    0.9472 N   0  0  0  0  0  0  0  0  0  0  0  0
    3.8670    1.1371    1.6942 C   0  0  1  0  0  0  0  0  0  0  0  0
    4.7341    1.6807    2.8501 C   0  0  0  0  0  0  0  0  0  0  0  0
    5.8243    2.6703    2.4144 C   0  0  0  0  0  0  0  0  0  0  0  0
    5.2505    3.7968    1.5446 C   0  0  0  0  0  0  0  0  0  0  0  0
    4.4880    3.2366    0.3364 C   0  0  0  0  0  0  0  0  0  0  0  0
    3.3739    2.2789    0.7783 C   0  0  0  0  0  0  0  0  0  0  0  0
    1.4474   -3.4649    3.9288 H   0  0  0  0  0  0  0  0  0  0  0  0
    1.0059   -3.7208    2.2255 H   0  0  0  0  0  0  0  0  0  0  0  0
    0.6146   -2.1814    3.0220 H   0  0  0  0  0  0  0  0  0  0  0  0
    3.4845   -3.2094    2.4679 H   0  0  0  0  0  0  0  0  0  0  0  0
    3.0970   -1.6877    3.2632 H   0  0  0  0  0  0  0  0  0  0  0  0
    1.9208   -0.9089    1.1542 H   0  0  0  0  0  0  0  0  0  0  0  0
    2.3051   -2.4354    0.3880 H   0  0  0  0  0  0  0  0  0  0  0  0
    3.9918   -3.4863   -0.7984 H   0  0  0  0  0  0  0  0  0  0  0  0
    5.5210   -3.2947   -1.4069 H   0  0  0  0  0  0  0  0  0  0  0  0
    6.9689   -1.0097   -0.7556 H   0  0  0  0  0  0  0  0  0  0  0  0
    2.9834    0.6628    2.1426 H   0  0  0  0  0  0  0  0  0  0  0  0
    5.1717    0.8343    3.4040 H   0  0  0  0  0  0  0  0  0  0  0  0
    4.0455    2.1918    3.5476 H   0  0  0  0  0  0  0  0  0  0  0  0
    6.5937    2.1273    1.8458 H   0  0  0  0  0  0  0  0  0  0  0  0
    6.3121    3.0900    3.3109 H   0  0  0  0  0  0  0  0  0  0  0  0
    6.0606    4.4650    1.2071 H   0  0  0  0  0  0  0  0  0  0  0  0
    4.5663    4.4214    2.1510 H   0  0  0  0  0  0  0  0  0  0  0  0
    5.1899    2.6984   -0.3202 H   0  0  0  0  0  0  0  0  0  0  0  0
    4.0516    4.0576   -0.2577 H   0  0  0  0  0  0  0  0  0  0  0  0
    2.8556    1.8465   -0.0936 H   0  0  0  0  0  0  0  0  0  0  0  0
    2.6148    2.8474    1.3463 H   0  0  0  0  0  0  0  0  0  0  0  0
  1  2  1  0
  1 16  1  0
  1 17  1  0
  1 18  1  0
  2  3  1  0
  2 19  1  0
  2 20  1  0
  3  4  1  0
  3 21  1  0
  3 22  1  0
  4  5  2  0
  4  9  1  0
  5  6  1  0
  5  7  1  0
  6 23  1  0
  6 24  1  0
  7  8  2  0
  7 25  1  0
  8  9  1  0
  9 10  1  0
 10 11  1  0
 10 15  1  0
 10 26  1  1
 11 12  1  0
 11 27  1  0
 11 28  1  0
 12 13  1  0
 12 29  1  0
 12 30  1  0
 13 14  1  0
 13 31  1  0
 13 32  1  0
 14 15  1  0
 14 33  1  0
 14 34  1  0
 15 35  1  0
 15 36  1  0
M  END

