
     RDKit          3D

 48 50  0  0  0  0  0  0  0  0999 V2000
    2.8624   -0.3418    4.5122 O   0  0  0  0  0  0  0  0  0  0  0  0
    3.9448   -0.8319    4.6914 C   0  0  0  0  0  0  0  0  0  0  0  0
    4.4502   -0.8966    5.9504 O   0  0  0  0  0  0  0  0  0  0  0  0
    4.8393   -1.4324    3.6035 C   0  0  1  0  0  0  0  0  0  0  0  0
    4.9669   -2.9670    3.7765 C   0  0  0  0  0  0  0  0  0  0  0  0
    3.6600   -3.6912    3.4295 C   0  0  0  0  0  0  0  0  0  0  0  0
    3.1894   -3.3947    1.9833 C   0  0  2  0  0  0  0  0  0  0  0  0
    4.0984   -4.0945    0.9640 C   0  0  0  0  0  0  0  0  0  0  0  0
    5.0891   -3.5268    0.5147 O   0  0  0  0  0  0  0  0  0  0  0  0
    3.7891   -5.3820    0.5805 N   0  0  0  0  0  0  0  0  0  0  0  0
    4.6307   -6.0439   -0.4186 C   0  0  0  0  0  0  0  0  0  0  0  0
    5.2478   -7.3266    0.1490 C   0  0  0  0  0  0  0  0  0  0  0  0
    4.2045   -8.2853    0.7565 C   0  0  2  0  0  0  0  0  0  0  0  0
    3.5032   -9.0754   -0.2656 N   0  0  0  0  0  0  0  0  0  0  0  0
    3.6077  -10.4200   -0.4633 C   0  0  0  0  0  0  0  0  0  0  0  0
    2.7934  -10.7376   -1.5372 C   0  0  0  0  0  0  0  0  0  0  0  0
    2.2392   -9.4956   -1.9158 C   0  0  0  0  0  0  0  0  0  0  0  0
    1.2734   -9.2164   -3.0294 C   0  0  1  0  0  0  0  0  0  0  0  0
    0.9633  -10.3556   -3.6740 F   0  0  0  0  0  0  0  0  0  0  0  0
    0.1272   -8.6795   -2.5795 F   0  0  0  0  0  0  0  0  0  0  0  0
    1.7799   -8.3628   -3.9339 F   0  0  0  0  0  0  0  0  0  0  0  0
    2.6747   -8.5030   -1.1438 N   0  0  0  0  0  0  0  0  0  0  0  0
    3.2330   -7.5232    1.6785 C   0  0  0  0  0  0  0  0  0  0  0  0
    2.6953   -6.2176    1.0693 C   0  0  0  0  0  0  0  0  0  0  0  0
    3.1139   -1.8692    1.7490 C   0  0  0  0  0  0  0  0  0  0  0  0
    4.3627   -1.0866    2.1832 C   0  0  0  0  0  0  0  0  0  0  0  0
    5.3386   -1.2798    5.9359 H   0  0  0  0  0  0  0  0  0  0  0  0
    5.8425   -0.9905    3.7533 H   0  0  0  0  0  0  0  0  0  0  0  0
    5.2697   -3.2239    4.8065 H   0  0  0  0  0  0  0  0  0  0  0  0
    5.7734   -3.3166    3.1128 H   0  0  0  0  0  0  0  0  0  0  0  0
    2.8637   -3.3722    4.1242 H   0  0  0  0  0  0  0  0  0  0  0  0
    3.7864   -4.7764    3.5819 H   0  0  0  0  0  0  0  0  0  0  0  0
    2.1665   -3.7825    1.8742 H   0  0  0  0  0  0  0  0  0  0  0  0
    5.4134   -5.3347   -0.7112 H   0  0  0  0  0  0  0  0  0  0  0  0
    4.0174   -6.2813   -1.3031 H   0  0  0  0  0  0  0  0  0  0  0  0
    5.9560   -7.0565    0.9505 H   0  0  0  0  0  0  0  0  0  0  0  0
    5.8245   -7.8496   -0.6306 H   0  0  0  0  0  0  0  0  0  0  0  0
    4.7312   -9.0410    1.3580 H   0  0  0  0  0  0  0  0  0  0  0  0
    4.2425  -11.0411    0.1650 H   0  0  0  0  0  0  0  0  0  0  0  0
    2.6199  -11.7131   -1.9822 H   0  0  0  0  0  0  0  0  0  0  0  0
    3.7844   -7.2819    2.6030 H   0  0  0  0  0  0  0  0  0  0  0  0
    2.3940   -8.1786    1.9617 H   0  0  0  0  0  0  0  0  0  0  0  0
    2.1139   -5.6843    1.8284 H   0  0  0  0  0  0  0  0  0  0  0  0
    2.0173   -6.4557    0.2335 H   0  0  0  0  0  0  0  0  0  0  0  0
    2.2494   -1.4920    2.3166 H   0  0  0  0  0  0  0  0  0  0  0  0
    2.9132   -1.6690    0.6846 H   0  0  0  0  0  0  0  0  0  0  0  0
    4.1519   -0.0076    2.1209 H   0  0  0  0  0  0  0  0  0  0  0  0
    5.1828   -1.3122    1.4882 H   0  0  0  0  0  0  0  0  0  0  0  0
  1  2  2  0
  2  3  1  0
  2  4  1  0
  3 27  1  0
  4  5  1  0
  4 26  1  0
  4 28  1  1
  5  6  1  0
  5 29  1  0
  5 30  1  0
  6  7  1  0
  6 31  1  0
  6 32  1  0
  7  8  1  0
  7 25  1  0
  7 33  1  1
  8  9  2  0
  8 10  1  0
 10 11  1  0
 10 24  1  0
 11 12  1  0
 11 34  1  0
 11 35  1  0
 12 13  1  0
 12 36  1  0
 12 37  1  0
 13 14  1  0
 13 23  1  0
 13 38  1  1
 14 15  1  0
 14 22  1  0
 15 16  2  0
 15 39  1  0
 16 17  1  0
 16 40  1  0
 17 18  1  0
 17 22  2  0
 18 19  1  6
 18 20  1  0
 18 21  1  0
 23 24  1  0
 23 41  1  0
 23 42  1  0
 24 43  1  0
 24 44  1  0
 25 26  1  0
 25 45  1  0
 25 46  1  0
 26 47  1  0
 26 48  1  0
M  END

