
     RDKit          3D

 52 54  0  0  0  0  0  0  0  0999 V2000
    3.0514   -3.7635   -1.4973 C   0  0  0  0  0  0  0  0  0  0  0  0
    4.1226   -3.5226   -0.4629 C   0  0  0  0  0  0  0  0  0  0  0  0
    5.3131   -4.2632   -0.4558 C   0  0  0  0  0  0  0  0  0  0  0  0
    6.3114   -4.0235    0.4932 C   0  0  0  0  0  0  0  0  0  0  0  0
    6.1349   -3.0325    1.4664 C   0  0  0  0  0  0  0  0  0  0  0  0
    7.3810   -2.7538    2.7312 S   0  0  0  0  0  0  0  0  0  0  0  0
    8.1271   -1.1740    2.1663 C   0  0  0  0  0  0  0  0  0  0  0  0
    9.0894   -1.2078    0.9707 C   0  0  0  0  0  0  0  0  0  0  0  0
    9.2811   -0.1990    0.3205 O   0  0  0  0  0  0  0  0  0  0  0  0
    9.7156   -2.4134    0.7658 N   0  0  0  0  0  0  0  0  0  0  0  0
   10.6772   -2.7561   -0.1902 C   0  0  0  0  0  0  0  0  0  0  0  0
   11.1639   -1.8470   -1.1522 C   0  0  0  0  0  0  0  0  0  0  0  0
   12.1213   -2.2636   -2.0735 C   0  0  0  0  0  0  0  0  0  0  0  0
   12.6053   -3.5763   -2.0418 C   0  0  0  0  0  0  0  0  0  0  0  0
   13.8436   -4.0822   -3.2273 S   0  0  1  0  0  0  0  0  0  0  0  0
   13.8656   -5.5433   -3.2603 O   0  0  0  0  0  0  0  0  0  0  0  0
   13.6864   -3.2681   -4.4282 O   0  0  0  0  0  0  0  0  0  0  0  0
   15.3305   -3.5614   -2.5942 N   0  0  0  0  0  0  0  0  0  0  0  0
   16.0328   -4.0408   -1.4888 C   0  0  0  0  0  0  0  0  0  0  0  0
   15.9093   -5.3494   -0.9891 C   0  0  0  0  0  0  0  0  0  0  0  0
   16.6967   -5.6637    0.1189 C   0  0  0  0  0  0  0  0  0  0  0  0
   16.6585   -7.0261    0.7562 C   0  0  0  0  0  0  0  0  0  0  0  0
   17.5363   -4.7672    0.6668 N   0  0  0  0  0  0  0  0  0  0  0  0
   17.5973   -3.5585    0.1056 C   0  0  0  0  0  0  0  0  0  0  0  0
   18.5584   -2.5577    0.6882 C   0  0  0  0  0  0  0  0  0  0  0  0
   16.8703   -3.1558   -0.9462 N   0  0  0  0  0  0  0  0  0  0  0  0
   12.1214   -4.4923   -1.1021 C   0  0  0  0  0  0  0  0  0  0  0  0
   11.1642   -4.0789   -0.1813 C   0  0  0  0  0  0  0  0  0  0  0  0
    4.9387   -2.2973    1.4834 C   0  0  0  0  0  0  0  0  0  0  0  0
    3.9551   -2.5357    0.5251 C   0  0  0  0  0  0  0  0  0  0  0  0
    3.2708   -4.6497   -2.1103 H   0  0  0  0  0  0  0  0  0  0  0  0
    2.9575   -2.9004   -2.1781 H   0  0  0  0  0  0  0  0  0  0  0  0
    2.0656   -3.9098   -1.0267 H   0  0  0  0  0  0  0  0  0  0  0  0
    5.4682   -5.0411   -1.2085 H   0  0  0  0  0  0  0  0  0  0  0  0
    7.2308   -4.6126    0.4746 H   0  0  0  0  0  0  0  0  0  0  0  0
    8.6850   -0.7883    3.0364 H   0  0  0  0  0  0  0  0  0  0  0  0
    7.3456   -0.4386    1.9323 H   0  0  0  0  0  0  0  0  0  0  0  0
    9.4018   -3.1586    1.3863 H   0  0  0  0  0  0  0  0  0  0  0  0
   10.7767   -0.8309   -1.1673 H   0  0  0  0  0  0  0  0  0  0  0  0
   12.4837   -1.5697   -2.8345 H   0  0  0  0  0  0  0  0  0  0  0  0
   15.5530   -2.5975   -2.8378 H   0  0  0  0  0  0  0  0  0  0  0  0
   15.2572   -6.0783   -1.4662 H   0  0  0  0  0  0  0  0  0  0  0  0
   15.9567   -7.7031    0.2498 H   0  0  0  0  0  0  0  0  0  0  0  0
   16.3715   -6.9347    1.8162 H   0  0  0  0  0  0  0  0  0  0  0  0
   17.6649   -7.4739    0.7408 H   0  0  0  0  0  0  0  0  0  0  0  0
   18.9910   -2.9433    1.6195 H   0  0  0  0  0  0  0  0  0  0  0  0
   18.0499   -1.5993    0.8737 H   0  0  0  0  0  0  0  0  0  0  0  0
   19.3709   -2.3549   -0.0294 H   0  0  0  0  0  0  0  0  0  0  0  0
   12.4817   -5.5216   -1.1068 H   0  0  0  0  0  0  0  0  0  0  0  0
   10.7819   -4.7908    0.5556 H   0  0  0  0  0  0  0  0  0  0  0  0
    4.7796   -1.5408    2.2557 H   0  0  0  0  0  0  0  0  0  0  0  0
    3.0312   -1.9506    0.5506 H   0  0  0  0  0  0  0  0  0  0  0  0
  1  2  1  0
  1 31  1  0
  1 32  1  0
  1 33  1  0
  2  3  2  0
  2 30  1  0
  3  4  1  0
  3 34  1  0
  4  5  2  0
  4 35  1  0
  5  6  1  0
  5 29  1  0
  6  7  1  0
  7  8  1  0
  7 36  1  0
  7 37  1  0
  8  9  2  0
  8 10  1  0
 10 11  1  0
 10 38  1  0
 11 12  2  0
 11 28  1  0
 12 13  1  0
 12 39  1  0
 13 14  2  0
 13 40  1  0
 14 15  1  0
 14 27  1  0
 15 16  2  0
 15 17  2  0
 15 18  1  1
 18 19  1  0
 18 41  1  0
 19 20  2  0
 19 26  1  0
 20 21  1  0
 20 42  1  0
 21 22  1  0
 21 23  2  0
 22 43  1  0
 22 44  1  0
 22 45  1  0
 23 24  1  0
 24 25  1  0
 24 26  2  0
 25 46  1  0
 25 47  1  0
 25 48  1  0
 27 28  2  0
 27 49  1  0
 28 50  1  0
 29 30  2  0
 29 51  1  0
 30 52  1  0
M  END

