
     RDKit          3D

 50 53  0  0  0  0  0  0  0  0999 V2000
    0.8853    0.2784    0.2550 C   0  0  0  0  0  0  0  0  0  0  0  0
    2.3847    0.2949    0.1402 C   0  0  0  0  0  0  0  0  0  0  0  0
    3.1027    1.4599    0.1141 C   0  0  0  0  0  0  0  0  0  0  0  0
    4.5462    1.4776    0.0623 C   0  0  0  0  0  0  0  0  0  0  0  0
    5.2069    2.5227   -0.0120 O   0  0  0  0  0  0  0  0  0  0  0  0
    5.1427    0.1202    0.1367 C   0  0  0  0  0  0  0  0  0  0  0  0
    6.6436   -0.1548    0.2172 C   0  0  0  0  0  0  0  0  0  0  0  0
    7.0691   -1.2870    0.3563 O   0  0  0  0  0  0  0  0  0  0  0  0
    7.3972    0.9807    0.1190 N   0  0  0  0  0  0  0  0  0  0  0  0
    8.7948    1.1004    0.1547 C   0  0  0  0  0  0  0  0  0  0  0  0
    9.6713    0.0081    0.2943 C   0  0  0  0  0  0  0  0  0  0  0  0
   11.0513    0.2258    0.3102 C   0  0  0  0  0  0  0  0  0  0  0  0
   11.5777    1.5110    0.2018 C   0  0  0  0  0  0  0  0  0  0  0  0
   10.7049    2.6074    0.0723 C   0  0  0  0  0  0  0  0  0  0  0  0
    9.3263    2.4000    0.0395 C   0  0  0  0  0  0  0  0  0  0  0  0
   11.2785    3.8860    0.0145 N   0  0  0  0  0  0  0  0  0  0  0  0
   12.6130    4.1145   -0.2062 C   0  0  0  0  0  0  0  0  0  0  0  0
   13.0944    5.2293   -0.2467 O   0  0  0  0  0  0  0  0  0  0  0  0
   13.4282    2.8361   -0.4658 C   0  0  1  0  0  0  0  0  0  0  0  0
   14.8928    3.0123   -0.1192 C   0  0  0  0  0  0  0  0  0  0  0  0
   12.9240    1.7226    0.2769 O   0  0  0  0  0  0  0  0  0  0  0  0
    4.4157   -0.9615    0.1440 N   0  0  0  0  0  0  0  0  0  0  0  0
    3.0844   -0.8994    0.1063 N   0  0  0  0  0  0  0  0  0  0  0  0
    2.4519   -2.1950    0.0969 C   0  0  0  0  0  0  0  0  0  0  0  0
    2.7928   -3.1211    1.0899 C   0  0  0  0  0  0  0  0  0  0  0  0
    2.2142   -4.3900    1.0745 C   0  0  0  0  0  0  0  0  0  0  0  0
    1.2991   -4.7389    0.0775 C   0  0  0  0  0  0  0  0  0  0  0  0
    0.9762   -3.8128   -0.9190 C   0  0  0  0  0  0  0  0  0  0  0  0
   -0.0362   -4.1597   -1.9853 C   0  0  1  0  0  0  0  0  0  0  0  0
   -0.0946   -5.4807   -2.2094 F   0  0  0  0  0  0  0  0  0  0  0  0
   -1.2734   -3.7619   -1.6292 F   0  0  0  0  0  0  0  0  0  0  0  0
    0.2468   -3.5565   -3.1528 F   0  0  0  0  0  0  0  0  0  0  0  0
    1.5629   -2.5426   -0.9215 C   0  0  0  0  0  0  0  0  0  0  0  0
    0.5353    1.2790    0.5402 H   0  0  0  0  0  0  0  0  0  0  0  0
    0.5461   -0.4431    1.0133 H   0  0  0  0  0  0  0  0  0  0  0  0
    0.3969    0.0095   -0.6938 H   0  0  0  0  0  0  0  0  0  0  0  0
    2.5885    2.4214    0.1483 H   0  0  0  0  0  0  0  0  0  0  0  0
    6.8453    1.8451    0.0248 H   0  0  0  0  0  0  0  0  0  0  0  0
    9.2616   -0.9948    0.3818 H   0  0  0  0  0  0  0  0  0  0  0  0
   11.7451   -0.6106    0.4181 H   0  0  0  0  0  0  0  0  0  0  0  0
    8.6550    3.2567   -0.0660 H   0  0  0  0  0  0  0  0  0  0  0  0
   10.6932    4.7101    0.1153 H   0  0  0  0  0  0  0  0  0  0  0  0
   13.3199    2.6164   -1.5497 H   0  0  0  0  0  0  0  0  0  0  0  0
   15.0089    3.1955    0.9594 H   0  0  0  0  0  0  0  0  0  0  0  0
   15.3008    3.8738   -0.6638 H   0  0  0  0  0  0  0  0  0  0  0  0
   15.4547    2.1063   -0.3876 H   0  0  0  0  0  0  0  0  0  0  0  0
    3.5236   -2.8439    1.8509 H   0  0  0  0  0  0  0  0  0  0  0  0
    2.4824   -5.1155    1.8455 H   0  0  0  0  0  0  0  0  0  0  0  0
    0.8480   -5.7323    0.0632 H   0  0  0  0  0  0  0  0  0  0  0  0
    1.3448   -1.8451   -1.7304 H   0  0  0  0  0  0  0  0  0  0  0  0
  1  2  1  0
  1 34  1  0
  1 35  1  0
  1 36  1  0
  2  3  2  0
  2 23  1  0
  3  4  1  0
  3 37  1  0
  4  5  2  0
  4  6  1  0
  6  7  1  0
  6 22  2  0
  7  8  2  0
  7  9  1  0
  9 10  1  0
  9 38  1  0
 10 11  2  0
 10 15  1  0
 11 12  1  0
 11 39  1  0
 12 13  2  0
 12 40  1  0
 13 14  1  0
 13 21  1  0
 14 15  2  0
 14 16  1  0
 15 41  1  0
 16 17  1  0
 16 42  1  0
 17 18  2  0
 17 19  1  0
 19 20  1  0
 19 21  1  0
 19 43  1  6
 20 44  1  0
 20 45  1  0
 20 46  1  0
 22 23  1  0
 23 24  1  0
 24 25  2  0
 24 33  1  0
 25 26  1  0
 25 47  1  0
 26 27  2  0
 26 48  1  0
 27 28  1  0
 27 49  1  0
 28 29  1  0
 28 33  2  0
 29 30  1  6
 29 31  1  0
 29 32  1  0
 33 50  1  0
M  END

