
     RDKit          3D

 32 33  0  0  0  0  0  0  0  0999 V2000
    0.7471   -0.8836    0.1415 C   0  0  0  0  0  0  0  0  0  0  0  0
    2.2647   -0.8341    0.3694 C   0  0  1  0  0  0  0  0  0  0  0  0
    2.6421    0.3599    1.2564 C   0  0  0  0  0  0  0  0  0  0  0  0
    2.6989   -2.0436    0.9855 O   0  0  0  0  0  0  0  0  0  0  0  0
    2.9772   -0.8039   -1.0133 C   0  0  0  0  0  0  0  0  0  0  0  0
    4.4804   -0.9456   -0.9533 C   0  0  0  0  0  0  0  0  0  0  0  0
    5.1109   -2.1706   -0.7778 C   0  0  0  0  0  0  0  0  0  0  0  0
    4.3901   -3.4583   -0.7303 N   0  0  0  0  0  0  0  0  0  0  0  0
    3.4851   -3.6481   -1.5265 O   0  0  0  0  0  0  0  0  0  0  0  0
    4.7984   -4.2804    0.0708 O   0  0  0  0  0  0  0  0  0  0  0  0
    6.5212   -2.2737   -0.6445 C   0  0  0  0  0  0  0  0  0  0  0  0
    7.3249   -1.2454   -0.7159 N   0  0  0  0  0  0  0  0  0  0  0  0
    6.7749   -0.0150   -0.9105 C   0  0  0  0  0  0  0  0  0  0  0  0
    7.6589    1.0963   -0.9901 C   0  0  0  0  0  0  0  0  0  0  0  0
    7.1739    2.3712   -1.1809 C   0  0  0  0  0  0  0  0  0  0  0  0
    5.7788    2.5861   -1.2996 C   0  0  0  0  0  0  0  0  0  0  0  0
    4.8963    1.5288   -1.2227 C   0  0  0  0  0  0  0  0  0  0  0  0
    5.3568    0.1933   -1.0280 C   0  0  0  0  0  0  0  0  0  0  0  0
    0.2154   -0.9283    1.1067 H   0  0  0  0  0  0  0  0  0  0  0  0
    0.4811   -1.7800   -0.4381 H   0  0  0  0  0  0  0  0  0  0  0  0
    0.3856    0.0064   -0.3978 H   0  0  0  0  0  0  0  0  0  0  0  0
    2.1351    0.2764    2.2329 H   0  0  0  0  0  0  0  0  0  0  0  0
    2.3341    1.3177    0.8087 H   0  0  0  0  0  0  0  0  0  0  0  0
    3.7259    0.3913    1.4402 H   0  0  0  0  0  0  0  0  0  0  0  0
    2.3201   -2.0993    1.8724 H   0  0  0  0  0  0  0  0  0  0  0  0
    2.6989    0.1256   -1.5250 H   0  0  0  0  0  0  0  0  0  0  0  0
    2.5760   -1.6349   -1.6042 H   0  0  0  0  0  0  0  0  0  0  0  0
    6.9580   -3.2639   -0.4800 H   0  0  0  0  0  0  0  0  0  0  0  0
    8.7262    0.8888   -0.8946 H   0  0  0  0  0  0  0  0  0  0  0  0
    7.8611    3.2186   -1.2430 H   0  0  0  0  0  0  0  0  0  0  0  0
    5.3981    3.5985   -1.4555 H   0  0  0  0  0  0  0  0  0  0  0  0
    3.8291    1.7256   -1.3202 H   0  0  0  0  0  0  0  0  0  0  0  0
  1  2  1  0
  1 19  1  0
  1 20  1  0
  1 21  1  0
  2  3  1  0
  2  4  1  1
  2  5  1  0
  3 22  1  0
  3 23  1  0
  3 24  1  0
  4 25  1  0
  5  6  1  0
  5 26  1  0
  5 27  1  0
  6  7  2  0
  6 18  1  0
  7  8  1  0
  7 11  1  0
  8  9  2  0
  8 10  1  0
 11 12  2  0
 11 28  1  0
 12 13  1  0
 13 14  1  0
 13 18  2  0
 14 15  2  0
 14 29  1  0
 15 16  1  0
 15 30  1  0
 16 17  2  0
 16 31  1  0
 17 18  1  0
 17 32  1  0
M  CHG  2   8   1  10  -1
M  END

