
     RDKit          3D

 28 31  0  0  0  0  0  0  0  0999 V2000
   -1.3486   -0.2158    0.1044 C   0  0  0  0  0  0  0  0  0  0  0  0
   -0.8044    1.0732    0.0491 C   0  0  0  0  0  0  0  0  0  0  0  0
    0.5721    1.2497   -0.0772 C   0  0  0  0  0  0  0  0  0  0  0  0
    1.4239    0.1313   -0.1500 C   0  0  0  0  0  0  0  0  0  0  0  0
    2.8648    0.3386   -0.2821 C   0  0  0  0  0  0  0  0  0  0  0  0
    3.5030    1.4723   -0.3424 N   0  0  0  0  0  0  0  0  0  0  0  0
    4.8346    1.1262   -0.4644 C   0  0  0  0  0  0  0  0  0  0  0  0
    4.9388   -0.2725   -0.4693 C   0  0  0  0  0  0  0  0  0  0  0  0
    6.1368   -0.9911   -0.5773 C   0  0  0  0  0  0  0  0  0  0  0  0
    7.3106   -0.2478   -0.6882 C   0  0  0  0  0  0  0  0  0  0  0  0
    7.2356    1.1617   -0.6858 C   0  0  0  0  0  0  0  0  0  0  0  0
    8.2496    2.0933   -0.7824 N   0  0  0  0  0  0  0  0  0  0  0  0
    9.2328    1.8774   -0.8729 H   0  0  0  0  0  0  0  0  0  0  0  0
    7.7161    3.3629   -0.7377 C   0  0  0  0  0  0  0  0  0  0  0  0
    6.3470    3.2862   -0.6107 C   0  0  0  0  0  0  0  0  0  0  0  0
    6.0160    1.8944   -0.5757 C   0  0  0  0  0  0  0  0  0  0  0  0
    3.6687   -0.7680   -0.3501 O   0  0  0  0  0  0  0  0  0  0  0  0
    0.8733   -1.1619   -0.0940 C   0  0  0  0  0  0  0  0  0  0  0  0
   -0.5063   -1.3300    0.0325 C   0  0  0  0  0  0  0  0  0  0  0  0
   -2.4287   -0.3509    0.2035 H   0  0  0  0  0  0  0  0  0  0  0  0
   -1.4597    1.9462    0.1048 H   0  0  0  0  0  0  0  0  0  0  0  0
    1.0135    2.2468   -0.1220 H   0  0  0  0  0  0  0  0  0  0  0  0
    6.1470   -2.0818   -0.5745 H   0  0  0  0  0  0  0  0  0  0  0  0
    8.2755   -0.7530   -0.7755 H   0  0  0  0  0  0  0  0  0  0  0  0
    8.3616    4.2372   -0.8002 H   0  0  0  0  0  0  0  0  0  0  0  0
    5.6560    4.1229   -0.5492 H   0  0  0  0  0  0  0  0  0  0  0  0
    1.5334   -2.0290   -0.1507 H   0  0  0  0  0  0  0  0  0  0  0  0
   -0.9270   -2.3378    0.0752 H   0  0  0  0  0  0  0  0  0  0  0  0
  1  2  2  0
  1 19  1  0
  1 20  1  0
  2  3  1  0
  2 21  1  0
  3  4  2  0
  3 22  1  0
  4  5  1  0
  4 18  1  0
  5  6  2  0
  5 17  1  0
  6  7  1  0
  7  8  2  0
  7 16  1  0
  8  9  1  0
  8 17  1  0
  9 10  2  0
  9 23  1  0
 10 11  1  0
 10 24  1  0
 11 12  1  0
 11 16  2  0
 12 13  1  0
 12 14  1  0
 14 15  2  0
 14 25  1  0
 15 16  1  0
 15 26  1  0
 18 19  2  0
 18 27  1  0
 19 28  1  0
M  END

