
     RDKit          3D

 69 73  0  0  0  0  0  0  0  0999 V2000
    8.6235    3.0395   -0.4205 C   0  0  0  0  0  0  0  0  0  0  0  0
    8.4686    2.1779    0.6017 C   0  0  0  0  0  0  0  0  0  0  0  0
    7.4293    2.4728    1.6364 C   0  0  0  0  0  0  0  0  0  0  0  0
    6.1295    2.1575    1.5100 C   0  0  0  0  0  0  0  0  0  0  0  0
    5.6439    1.3125    0.4181 C   0  0  0  0  0  0  0  0  0  0  0  0
    6.1736    0.1046    0.1176 C   0  0  0  0  0  0  0  0  0  0  0  0
    5.5585   -0.9423   -1.2706 P   0  0  1  0  0  0  0  0  0  0  0  0
    5.1663   -2.3334   -0.8384 O   0  0  0  0  0  0  0  0  0  0  0  0
    4.1217   -0.0562   -1.9921 C   0  0  0  0  0  0  0  0  0  0  0  0
    4.2254    1.0599   -2.8383 C   0  0  0  0  0  0  0  0  0  0  0  0
    3.0723    1.6621   -3.3491 C   0  0  0  0  0  0  0  0  0  0  0  0
    1.8111    1.1508   -3.0243 C   0  0  0  0  0  0  0  0  0  0  0  0
    1.7036    0.0322   -2.1921 C   0  0  0  0  0  0  0  0  0  0  0  0
    2.8540   -0.5730   -1.6790 C   0  0  0  0  0  0  0  0  0  0  0  0
    6.8758   -0.9267   -2.5382 C   0  0  0  0  0  0  0  0  0  0  0  0
    7.7240    0.1698   -2.7579 C   0  0  0  0  0  0  0  0  0  0  0  0
    8.6844    0.1192   -3.7725 C   0  0  0  0  0  0  0  0  0  0  0  0
    8.8059   -1.0249   -4.5670 C   0  0  0  0  0  0  0  0  0  0  0  0
    7.9691   -2.1230   -4.3440 C   0  0  0  0  0  0  0  0  0  0  0  0
    7.0080   -2.0772   -3.3317 C   0  0  0  0  0  0  0  0  0  0  0  0
    7.2304   -0.7685    1.2909 S   0  0  0  0  0  0  0  0  0  0  0  0
    8.9552   -0.3049    1.0697 C   0  0  0  0  0  0  0  0  0  0  0  0
    9.3873    1.0123    0.7736 C   0  0  0  0  0  0  0  0  0  0  0  0
   10.7690    1.2581    0.6471 C   0  0  0  0  0  0  0  0  0  0  0  0
   11.7096    0.2543    0.8442 C   0  0  0  0  0  0  0  0  0  0  0  0
   11.2797   -1.0229    1.2012 C   0  0  0  0  0  0  0  0  0  0  0  0
    9.9138   -1.3243    1.3082 C   0  0  0  0  0  0  0  0  0  0  0  0
    9.6651   -3.0815    1.9049 P   0  0  0  0  0  0  0  0  0  0  0  0
   11.0105   -3.5933    2.3644 O   0  0  0  0  0  0  0  0  0  0  0  0
    8.4572   -3.0065    3.2793 C   0  0  0  0  0  0  0  0  0  0  0  0
    7.4147   -3.9344    3.4235 C   0  0  0  0  0  0  0  0  0  0  0  0
    6.6043   -3.9118    4.5623 C   0  0  0  0  0  0  0  0  0  0  0  0
    6.8322   -2.9699    5.5692 C   0  0  0  0  0  0  0  0  0  0  0  0
    7.8787   -2.0510    5.4391 C   0  0  0  0  0  0  0  0  0  0  0  0
    8.6894   -2.0714    4.3032 C   0  0  0  0  0  0  0  0  0  0  0  0
    9.0054   -4.1644    0.5812 C   0  0  0  0  0  0  0  0  0  0  0  0
    7.7206   -4.0995    0.0181 C   0  0  0  0  0  0  0  0  0  0  0  0
    7.3377   -5.0295   -0.9532 C   0  0  0  0  0  0  0  0  0  0  0  0
    8.2288   -6.0206   -1.3750 C   0  0  0  0  0  0  0  0  0  0  0  0
    9.5120   -6.0840   -0.8219 C   0  0  0  0  0  0  0  0  0  0  0  0
    9.8990   -5.1645    0.1556 C   0  0  0  0  0  0  0  0  0  0  0  0
    9.3796    2.8769   -1.1933 H   0  0  0  0  0  0  0  0  0  0  0  0
    7.9957    3.9300   -0.5100 H   0  0  0  0  0  0  0  0  0  0  0  0
    7.7599    3.0519    2.5076 H   0  0  0  0  0  0  0  0  0  0  0  0
    5.3981    2.5413    2.2306 H   0  0  0  0  0  0  0  0  0  0  0  0
    4.8059    1.6837   -0.1845 H   0  0  0  0  0  0  0  0  0  0  0  0
    5.2062    1.4557   -3.1126 H   0  0  0  0  0  0  0  0  0  0  0  0
    3.1589    2.5285   -4.0098 H   0  0  0  0  0  0  0  0  0  0  0  0
    0.9108    1.6212   -3.4282 H   0  0  0  0  0  0  0  0  0  0  0  0
    0.7197   -0.3759   -1.9468 H   0  0  0  0  0  0  0  0  0  0  0  0
    2.7894   -1.4601   -1.0446 H   0  0  0  0  0  0  0  0  0  0  0  0
    7.6517    1.0584   -2.1265 H   0  0  0  0  0  0  0  0  0  0  0  0
    9.3466    0.9730   -3.9370 H   0  0  0  0  0  0  0  0  0  0  0  0
    9.5609   -1.0642   -5.3565 H   0  0  0  0  0  0  0  0  0  0  0  0
    8.0711   -3.0230   -4.9555 H   0  0  0  0  0  0  0  0  0  0  0  0
    6.3604   -2.9346   -3.1390 H   0  0  0  0  0  0  0  0  0  0  0  0
   11.0961    2.2765    0.4277 H   0  0  0  0  0  0  0  0  0  0  0  0
   12.7765    0.4718    0.7539 H   0  0  0  0  0  0  0  0  0  0  0  0
   11.9914   -1.8195    1.4289 H   0  0  0  0  0  0  0  0  0  0  0  0
    7.2297   -4.6772    2.6456 H   0  0  0  0  0  0  0  0  0  0  0  0
    5.7920   -4.6363    4.6622 H   0  0  0  0  0  0  0  0  0  0  0  0
    6.1965   -2.9538    6.4584 H   0  0  0  0  0  0  0  0  0  0  0  0
    8.0663   -1.3175    6.2276 H   0  0  0  0  0  0  0  0  0  0  0  0
    9.5133   -1.3585    4.2139 H   0  0  0  0  0  0  0  0  0  0  0  0
    7.0000   -3.3366    0.3111 H   0  0  0  0  0  0  0  0  0  0  0  0
    6.3297   -4.9622   -1.3689 H   0  0  0  0  0  0  0  0  0  0  0  0
    7.9232   -6.7472   -2.1331 H   0  0  0  0  0  0  0  0  0  0  0  0
   10.2130   -6.8581   -1.1455 H   0  0  0  0  0  0  0  0  0  0  0  0
   10.8885   -5.2106    0.6154 H   0  0  0  0  0  0  0  0  0  0  0  0
  1  2  2  0
  1 42  1  0
  1 43  1  0
  2  3  1  0
  2 23  1  0
  3  4  2  0
  3 44  1  0
  4  5  1  0
  4 45  1  0
  5  6  2  0
  5 46  1  0
  7  6  1  1
  6 21  1  0
  7  8  2  0
  7  9  1  0
  7 15  1  0
  9 10  2  0
  9 14  1  0
 10 11  1  0
 10 47  1  0
 11 12  2  0
 11 48  1  0
 12 13  1  0
 12 49  1  0
 13 14  2  0
 13 50  1  0
 14 51  1  0
 15 16  2  0
 15 20  1  0
 16 17  1  0
 16 52  1  0
 17 18  2  0
 17 53  1  0
 18 19  1  0
 18 54  1  0
 19 20  2  0
 19 55  1  0
 20 56  1  0
 21 22  1  0
 22 23  2  0
 22 27  1  0
 23 24  1  0
 24 25  2  0
 24 57  1  0
 25 26  1  0
 25 58  1  0
 26 27  2  0
 26 59  1  0
 28 29  3  0
 28 30  1  0
 28 36  1  0
 30 31  2  0
 30 35  1  0
 31 32  1  0
 31 60  1  0
 32 33  2  0
 32 61  1  0
 33 34  1  0
 33 62  1  0
 34 35  2  0
 34 63  1  0
 35 64  1  0
 36 37  2  0
 36 41  1  0
 37 38  1  0
 37 65  1  0
 38 39  2  0
 38 66  1  0
 39 40  1  0
 39 67  1  0
 40 41  2  0
 40 68  1  0
 41 69  1  0
M  CHG  2  27  -1  29   1
M  END

