
     RDKit          3D

 40 41  0  0  0  0  0  0  0  0999 V2000
    1.1739    0.4547   -0.4703 C   0  0  0  0  0  0  0  0  0  0  0  0
    2.6542    0.2096   -0.2989 C   0  0  0  0  0  0  0  0  0  0  0  0
    3.5477    1.2622   -0.0721 C   0  0  0  0  0  0  0  0  0  0  0  0
    4.9103    1.0013    0.0921 C   0  0  0  0  0  0  0  0  0  0  0  0
    5.4267   -0.2961    0.0358 C   0  0  0  0  0  0  0  0  0  0  0  0
    6.9059   -0.5449    0.2082 C   0  0  0  0  0  0  0  0  0  0  0  0
    4.5205   -1.3642   -0.1951 C   0  0  0  0  0  0  0  0  0  0  0  0
    5.0654   -2.6645   -0.2626 N   0  0  0  0  0  0  0  0  0  0  0  0
    4.4022   -3.8714   -0.4185 C   0  0  0  0  0  0  0  0  0  0  0  0
    3.1858   -3.9779   -0.4175 O   0  0  0  0  0  0  0  0  0  0  0  0
    5.2274   -4.9851   -0.5688 N   0  0  0  0  0  0  0  0  0  0  0  0
    4.6156   -6.3113   -0.5212 C   0  0  0  0  0  0  0  0  0  0  0  0
    4.8738   -7.0914   -1.8120 C   0  0  0  0  0  0  0  0  0  0  0  0
    6.3715   -7.1550   -2.1279 C   0  0  0  0  0  0  0  0  0  0  0  0
    6.9740   -5.7421   -2.1422 C   0  0  2  0  0  0  0  0  0  0  0  0
    8.4704   -5.7596   -2.4019 C   0  0  1  0  0  0  0  0  0  0  0  0
    8.7640   -6.3479   -3.5729 F   0  0  0  0  0  0  0  0  0  0  0  0
    8.9753   -4.5089   -2.4452 F   0  0  0  0  0  0  0  0  0  0  0  0
    9.1439   -6.4218   -1.4402 F   0  0  0  0  0  0  0  0  0  0  0  0
    6.6540   -4.9820   -0.8355 C   0  0  0  0  0  0  0  0  0  0  0  0
    3.1522   -1.1009   -0.3570 C   0  0  0  0  0  0  0  0  0  0  0  0
    0.9379    1.5292   -0.4672 H   0  0  0  0  0  0  0  0  0  0  0  0
    0.5949   -0.0198    0.3400 H   0  0  0  0  0  0  0  0  0  0  0  0
    0.8040    0.0283   -1.4173 H   0  0  0  0  0  0  0  0  0  0  0  0
    3.1814    2.2910   -0.0221 H   0  0  0  0  0  0  0  0  0  0  0  0
    5.5994    1.8324    0.2685 H   0  0  0  0  0  0  0  0  0  0  0  0
    7.4436    0.3971    0.3853 H   0  0  0  0  0  0  0  0  0  0  0  0
    7.3596   -1.0111   -0.6859 H   0  0  0  0  0  0  0  0  0  0  0  0
    7.1239   -1.2045    1.0686 H   0  0  0  0  0  0  0  0  0  0  0  0
    6.0554   -2.7106   -0.0739 H   0  0  0  0  0  0  0  0  0  0  0  0
    3.5429   -6.1720   -0.3465 H   0  0  0  0  0  0  0  0  0  0  0  0
    5.0372   -6.8691    0.3386 H   0  0  0  0  0  0  0  0  0  0  0  0
    4.3352   -6.6012   -2.6412 H   0  0  0  0  0  0  0  0  0  0  0  0
    4.4626   -8.1095   -1.7170 H   0  0  0  0  0  0  0  0  0  0  0  0
    6.5526   -7.6489   -3.0949 H   0  0  0  0  0  0  0  0  0  0  0  0
    6.8901   -7.7557   -1.3600 H   0  0  0  0  0  0  0  0  0  0  0  0
    6.5347   -5.1728   -2.9793 H   0  0  0  0  0  0  0  0  0  0  0  0
    7.0357   -3.9599   -0.9377 H   0  0  0  0  0  0  0  0  0  0  0  0
    7.2044   -5.4573   -0.0004 H   0  0  0  0  0  0  0  0  0  0  0  0
    2.4777   -1.9385   -0.5204 H   0  0  0  0  0  0  0  0  0  0  0  0
  1  2  1  0
  1 22  1  0
  1 23  1  0
  1 24  1  0
  2  3  2  0
  2 21  1  0
  3  4  1  0
  3 25  1  0
  4  5  2  0
  4 26  1  0
  5  6  1  0
  5  7  1  0
  6 27  1  0
  6 28  1  0
  6 29  1  0
  7  8  1  0
  7 21  2  0
  8  9  1  0
  8 30  1  0
  9 10  2  0
  9 11  1  0
 11 12  1  0
 11 20  1  0
 12 13  1  0
 12 31  1  0
 12 32  1  0
 13 14  1  0
 13 33  1  0
 13 34  1  0
 14 15  1  0
 14 35  1  0
 14 36  1  0
 15 16  1  0
 15 20  1  0
 15 37  1  6
 16 17  1  6
 16 18  1  0
 16 19  1  0
 20 38  1  0
 20 39  1  0
 21 40  1  0
M  END

