
     RDKit          3D

 43 45  0  0  0  0  0  0  0  0999 V2000
    3.7091    0.8218   -1.8463 C   0  0  0  0  0  0  0  0  0  0  0  0
    3.1144    1.6481   -0.7061 C   0  0  0  0  0  0  0  0  0  0  0  0
    3.3099    1.0466    0.6929 C   0  0  0  0  0  0  0  0  0  0  0  0
    4.6964    0.9301    1.1282 N   0  0  0  0  0  0  0  0  0  0  0  0
    5.4937    1.9098    1.7112 C   0  0  0  0  0  0  0  0  0  0  0  0
    5.0270    3.3124    1.9602 C   0  0  0  0  0  0  0  0  0  0  0  0
    5.3343    4.3407    0.8806 C   0  0  0  0  0  0  0  0  0  0  0  0
    6.1533    4.1047   -0.1585 C   0  0  0  0  0  0  0  0  0  0  0  0
    6.5230    5.1321   -1.2004 C   0  0  0  0  0  0  0  0  0  0  0  0
    6.2058    6.5719   -0.7680 C   0  0  2  0  0  0  0  0  0  0  0  0
    7.2827    7.0697    0.0897 N   0  0  0  0  0  0  0  0  0  0  0  0
    4.8014    6.6089   -0.1311 C   0  0  0  0  0  0  0  0  0  0  0  0
    4.7151    5.7046    1.1035 C   0  0  0  0  0  0  0  0  0  0  0  0
    6.6917    1.4762    2.0238 N   0  0  0  0  0  0  0  0  0  0  0  0
    6.7205    0.1497    1.6447 C   0  0  0  0  0  0  0  0  0  0  0  0
    7.7492   -0.7994    1.7552 C   0  0  0  0  0  0  0  0  0  0  0  0
    7.5026   -2.0932    1.3018 C   0  0  0  0  0  0  0  0  0  0  0  0
    6.2546   -2.4482    0.7462 C   0  0  0  0  0  0  0  0  0  0  0  0
    5.2197   -1.5203    0.6244 C   0  0  0  0  0  0  0  0  0  0  0  0
    5.4728   -0.2196    1.0790 C   0  0  0  0  0  0  0  0  0  0  0  0
    3.5277    1.3076   -2.8179 H   0  0  0  0  0  0  0  0  0  0  0  0
    3.2643   -0.1863   -1.8909 H   0  0  0  0  0  0  0  0  0  0  0  0
    4.7977    0.7003   -1.7333 H   0  0  0  0  0  0  0  0  0  0  0  0
    2.0270    1.7683   -0.8581 H   0  0  0  0  0  0  0  0  0  0  0  0
    3.5435    2.6638   -0.7181 H   0  0  0  0  0  0  0  0  0  0  0  0
    2.8700    0.0375    0.7374 H   0  0  0  0  0  0  0  0  0  0  0  0
    2.7646    1.6521    1.4337 H   0  0  0  0  0  0  0  0  0  0  0  0
    5.5088    3.6420    2.8971 H   0  0  0  0  0  0  0  0  0  0  0  0
    3.9420    3.3240    2.1632 H   0  0  0  0  0  0  0  0  0  0  0  0
    6.6051    3.1133   -0.2634 H   0  0  0  0  0  0  0  0  0  0  0  0
    5.9976    4.9006   -2.1461 H   0  0  0  0  0  0  0  0  0  0  0  0
    7.5991    5.0606   -1.4317 H   0  0  0  0  0  0  0  0  0  0  0  0
    6.1924    7.2099   -1.6691 H   0  0  0  0  0  0  0  0  0  0  0  0
    7.4380    6.4389    0.8771 H   0  0  0  0  0  0  0  0  0  0  0  0
    7.0400    7.9785    0.4859 H   0  0  0  0  0  0  0  0  0  0  0  0
    4.0613    6.2782   -0.8819 H   0  0  0  0  0  0  0  0  0  0  0  0
    4.5328    7.6455    0.1369 H   0  0  0  0  0  0  0  0  0  0  0  0
    3.6627    5.5919    1.4202 H   0  0  0  0  0  0  0  0  0  0  0  0
    5.2207    6.1864    1.9639 H   0  0  0  0  0  0  0  0  0  0  0  0
    8.7098   -0.5151    2.1899 H   0  0  0  0  0  0  0  0  0  0  0  0
    8.2865   -2.8511    1.3763 H   0  0  0  0  0  0  0  0  0  0  0  0
    6.0949   -3.4728    0.4009 H   0  0  0  0  0  0  0  0  0  0  0  0
    4.2612   -1.8069    0.1869 H   0  0  0  0  0  0  0  0  0  0  0  0
  1  2  1  0
  1 21  1  0
  1 22  1  0
  1 23  1  0
  2  3  1  0
  2 24  1  0
  2 25  1  0
  3  4  1  0
  3 26  1  0
  3 27  1  0
  4  5  1  0
  4 20  1  0
  5  6  1  0
  5 14  2  0
  6  7  1  0
  6 28  1  0
  6 29  1  0
  7  8  2  0
  7 13  1  0
  8  9  1  0
  8 30  1  0
  9 10  1  0
  9 31  1  0
  9 32  1  0
 10 11  1  0
 10 12  1  0
 10 33  1  6
 11 34  1  0
 11 35  1  0
 12 13  1  0
 12 36  1  0
 12 37  1  0
 13 38  1  0
 13 39  1  0
 14 15  1  0
 15 16  1  0
 15 20  2  0
 16 17  2  0
 16 40  1  0
 17 18  1  0
 17 41  1  0
 18 19  2  0
 18 42  1  0
 19 20  1  0
 19 43  1  0
M  END

