
     RDKit          3D

 32 34  0  0  0  0  0  0  0  0999 V2000
    1.2806   -0.4373   -0.8325 O   0  0  0  0  0  0  0  0  0  0  0  0
    2.4853   -0.3282   -0.8119 C   0  0  0  0  0  0  0  0  0  0  0  0
    3.4101   -1.1479   -0.1586 N   0  0  0  0  0  0  0  0  0  0  0  0
    3.1162   -1.9469    0.3873 H   0  0  0  0  0  0  0  0  0  0  0  0
    4.7088   -0.7072   -0.3629 C   0  0  0  0  0  0  0  0  0  0  0  0
    5.9452   -1.1760    0.0734 C   0  0  0  0  0  0  0  0  0  0  0  0
    7.0910   -0.4789   -0.3270 C   0  0  0  0  0  0  0  0  0  0  0  0
    7.0175    0.6639   -1.1441 C   0  0  0  0  0  0  0  0  0  0  0  0
    8.2556    1.3973   -1.5830 C   0  0  1  0  0  0  0  0  0  0  0  0
    9.1004    2.3383   -0.0123 Br  0  0  0  0  0  0  0  0  0  0  0  0
    9.3411    0.5498   -2.2680 C   0  0  0  0  0  0  0  0  0  0  0  0
    8.8710   -0.0422   -3.5793 C   0  0  0  0  0  0  0  0  0  0  0  0
    8.5690   -1.4032   -3.7343 C   0  0  0  0  0  0  0  0  0  0  0  0
    8.1426   -1.9210   -4.9609 C   0  0  0  0  0  0  0  0  0  0  0  0
    8.0062   -1.0763   -6.0663 C   0  0  0  0  0  0  0  0  0  0  0  0
    8.2971    0.2852   -5.9431 C   0  0  0  0  0  0  0  0  0  0  0  0
    8.7190    0.7710   -4.7097 C   0  0  0  0  0  0  0  0  0  0  0  0
    8.9977    2.0860   -4.5940 F   0  0  0  0  0  0  0  0  0  0  0  0
    5.7613    1.1340   -1.5737 C   0  0  0  0  0  0  0  0  0  0  0  0
    4.6208    0.4429   -1.1811 C   0  0  0  0  0  0  0  0  0  0  0  0
    3.2710    0.6436   -1.4350 N   0  0  0  0  0  0  0  0  0  0  0  0
    2.8586    1.3848   -1.9858 H   0  0  0  0  0  0  0  0  0  0  0  0
    6.0221   -2.0575    0.7134 H   0  0  0  0  0  0  0  0  0  0  0  0
    8.0650   -0.8207    0.0295 H   0  0  0  0  0  0  0  0  0  0  0  0
    7.9838    2.2318   -2.2387 H   0  0  0  0  0  0  0  0  0  0  0  0
    9.6701   -0.2542   -1.5941 H   0  0  0  0  0  0  0  0  0  0  0  0
   10.2121    1.1978   -2.4466 H   0  0  0  0  0  0  0  0  0  0  0  0
    8.6742   -2.0662   -2.8718 H   0  0  0  0  0  0  0  0  0  0  0  0
    7.9172   -2.9859   -5.0530 H   0  0  0  0  0  0  0  0  0  0  0  0
    7.6741   -1.4740   -7.0282 H   0  0  0  0  0  0  0  0  0  0  0  0
    8.2055    0.9759   -6.7837 H   0  0  0  0  0  0  0  0  0  0  0  0
    5.6888    2.0233   -2.2039 H   0  0  0  0  0  0  0  0  0  0  0  0
  1  2  2  0
  2  3  1  0
  2 21  1  0
  3  4  1  0
  3  5  1  0
  5  6  2  0
  5 20  1  0
  6  7  1  0
  6 23  1  0
  7  8  2  0
  7 24  1  0
  8  9  1  0
  8 19  1  0
  9 10  1  0
  9 11  1  0
  9 25  1  6
 11 12  1  0
 11 26  1  0
 11 27  1  0
 12 13  2  0
 12 17  1  0
 13 14  1  0
 13 28  1  0
 14 15  2  0
 14 29  1  0
 15 16  1  0
 15 30  1  0
 16 17  2  0
 16 31  1  0
 17 18  1  0
 19 20  2  0
 19 32  1  0
 20 21  1  0
 21 22  1  0
M  END

