
     RDKit          3D

 46 51  0  0  0  0  0  0  0  0999 V2000
    1.0463    0.2865    0.6148 F   0  0  0  0  0  0  0  0  0  0  0  0
    2.3539    0.2480    0.3205 C   0  0  0  0  0  0  0  0  0  0  0  0
    3.1532   -0.7392    0.8921 C   0  0  0  0  0  0  0  0  0  0  0  0
    4.5130   -0.7725    0.5805 C   0  0  0  0  0  0  0  0  0  0  0  0
    5.0895    0.1674   -0.2954 C   0  0  0  0  0  0  0  0  0  0  0  0
    6.5404    0.1245   -0.6223 C   0  0  0  0  0  0  0  0  0  0  0  0
    7.2048   -1.1038   -0.7831 C   0  0  0  0  0  0  0  0  0  0  0  0
    8.5729   -1.1705   -1.0918 C   0  0  0  0  0  0  0  0  0  0  0  0
    9.2662   -2.4217   -1.2675 C   0  0  0  0  0  0  0  0  0  0  0  0
   10.5960   -2.4610   -1.5699 C   0  0  0  0  0  0  0  0  0  0  0  0
   11.3657   -1.2531   -1.7297 C   0  0  0  0  0  0  0  0  0  0  0  0
   12.7355   -1.2674   -2.0378 C   0  0  0  0  0  0  0  0  0  0  0  0
   13.4747   -0.0806   -2.1831 C   0  0  0  0  0  0  0  0  0  0  0  0
   14.9258   -0.1234   -2.5098 C   0  0  0  0  0  0  0  0  0  0  0  0
   15.4435   -1.0865   -3.3972 C   0  0  0  0  0  0  0  0  0  0  0  0
   16.8028   -1.1331   -3.7090 C   0  0  0  0  0  0  0  0  0  0  0  0
   17.6611   -0.2036   -3.1262 C   0  0  0  0  0  0  0  0  0  0  0  0
   18.9686   -0.2419   -3.4210 F   0  0  0  0  0  0  0  0  0  0  0  0
   17.1888    0.7647   -2.2433 C   0  0  0  0  0  0  0  0  0  0  0  0
   15.8267    0.7980   -1.9419 C   0  0  0  0  0  0  0  0  0  0  0  0
   12.8125    1.1477   -2.0131 C   0  0  0  0  0  0  0  0  0  0  0  0
   11.4442    1.2144   -1.7051 C   0  0  0  0  0  0  0  0  0  0  0  0
   10.7495    2.4656   -1.5355 C   0  0  0  0  0  0  0  0  0  0  0  0
    9.4183    2.5050   -1.2390 C   0  0  0  0  0  0  0  0  0  0  0  0
    8.6474    1.2971   -1.0850 C   0  0  0  0  0  0  0  0  0  0  0  0
    7.2776    1.3115   -0.7772 C   0  0  0  0  0  0  0  0  0  0  0  0
    9.3123    0.0425   -1.2464 C   0  0  0  0  0  0  0  0  0  0  0  0
   10.7028    0.0014   -1.5594 C   0  0  0  0  0  0  0  0  0  0  0  0
    4.2472    1.1493   -0.8518 C   0  0  0  0  0  0  0  0  0  0  0  0
    2.8854    1.1962   -0.5506 C   0  0  0  0  0  0  0  0  0  0  0  0
    2.7061   -1.4606    1.5789 H   0  0  0  0  0  0  0  0  0  0  0  0
    5.1438   -1.5314    1.0486 H   0  0  0  0  0  0  0  0  0  0  0  0
    6.6435   -2.0371   -0.6930 H   0  0  0  0  0  0  0  0  0  0  0  0
    8.6997   -3.3497   -1.1516 H   0  0  0  0  0  0  0  0  0  0  0  0
   11.1040   -3.4208   -1.6979 H   0  0  0  0  0  0  0  0  0  0  0  0
   13.2380   -2.2323   -2.1400 H   0  0  0  0  0  0  0  0  0  0  0  0
   14.7673   -1.7998   -3.8735 H   0  0  0  0  0  0  0  0  0  0  0  0
   17.2051   -1.8723   -4.4045 H   0  0  0  0  0  0  0  0  0  0  0  0
   17.8908    1.4714   -1.7964 H   0  0  0  0  0  0  0  0  0  0  0  0
   15.4609    1.5414   -1.2303 H   0  0  0  0  0  0  0  0  0  0  0  0
   13.3638    2.0814   -2.1482 H   0  0  0  0  0  0  0  0  0  0  0  0
   11.3165    3.3936   -1.6494 H   0  0  0  0  0  0  0  0  0  0  0  0
    8.9099    3.4648   -1.1130 H   0  0  0  0  0  0  0  0  0  0  0  0
    6.7853    2.2759   -0.6301 H   0  0  0  0  0  0  0  0  0  0  0  0
    4.6581    1.8777   -1.5542 H   0  0  0  0  0  0  0  0  0  0  0  0
    2.2285    1.9502   -0.9887 H   0  0  0  0  0  0  0  0  0  0  0  0
  1  2  1  0
  2  3  2  0
  2 30  1  0
  3  4  1  0
  3 31  1  0
  4  5  2  0
  4 32  1  0
  5  6  1  0
  5 29  1  0
  6  7  2  0
  6 26  1  0
  7  8  1  0
  7 33  1  0
  8  9  2  0
  8 27  1  0
  9 10  1  0
  9 34  1  0
 10 11  2  0
 10 35  1  0
 11 12  1  0
 11 28  1  0
 12 13  2  0
 12 36  1  0
 13 14  1  0
 13 21  1  0
 14 15  2  0
 14 20  1  0
 15 16  1  0
 15 37  1  0
 16 17  2  0
 16 38  1  0
 17 18  1  0
 17 19  1  0
 19 20  2  0
 19 39  1  0
 20 40  1  0
 21 22  2  0
 21 41  1  0
 22 23  1  0
 22 28  1  0
 23 24  2  0
 23 42  1  0
 24 25  1  0
 24 43  1  0
 25 26  2  0
 25 27  1  0
 26 44  1  0
 27 28  2  0
 29 30  2  0
 29 45  1  0
 30 46  1  0
M  END

