
     RDKit          3D

 58 62  0  0  0  0  0  0  0  0999 V2000
   13.6344   -1.5750    4.4537 C   0  0  0  0  0  0  0  0  0  0  0  0
   12.3602   -1.9141    4.2313 C   0  0  0  0  0  0  0  0  0  0  0  0
   11.5375   -1.1462    3.2391 C   0  0  0  0  0  0  0  0  0  0  0  0
   11.9822   -0.1728    2.6422 O   0  0  0  0  0  0  0  0  0  0  0  0
   10.2540   -1.5769    3.0303 N   0  0  0  0  0  0  0  0  0  0  0  0
    9.5925   -2.7454    3.6175 C   0  0  0  0  0  0  0  0  0  0  0  0
    8.2689   -2.8726    2.8329 C   0  0  1  0  0  0  0  0  0  0  0  0
    7.0507   -3.2355    3.6835 C   0  0  0  0  0  0  0  0  0  0  0  0
    6.6018   -1.9464    4.1962 N   0  0  0  0  0  0  0  0  0  0  0  0
    5.6621   -1.8325    5.1811 C   0  0  0  0  0  0  0  0  0  0  0  0
    5.3549   -0.5677    5.5674 N   0  0  0  0  0  0  0  0  0  0  0  0
    4.4423   -0.3879    6.5220 C   0  0  0  0  0  0  0  0  0  0  0  0
    4.0841    0.8536    6.9547 N   0  0  0  0  0  0  0  0  0  0  0  0
    4.5511    2.1014    6.5439 C   0  0  0  0  0  0  0  0  0  0  0  0
    5.5618    2.4461    5.6051 C   0  0  0  0  0  0  0  0  0  0  0  0
    5.6947    3.7679    5.5157 N   0  0  0  0  0  0  0  0  0  0  0  0
    4.8042    4.2868    6.3661 N   0  0  0  0  0  0  0  0  0  0  0  0
    4.6879    5.7211    6.5188 C   0  0  0  0  0  0  0  0  0  0  0  0
    4.0849    3.3254    7.0143 C   0  0  0  0  0  0  0  0  0  0  0  0
    3.8236   -1.5218    7.1084 C   0  0  0  0  0  0  0  0  0  0  0  0
    2.8693   -1.6663    8.0917 N   0  0  0  0  0  0  0  0  0  0  0  0
    2.7072   -2.9622    8.1945 C   0  0  0  0  0  0  0  0  0  0  0  0
    3.5068   -3.6940    7.3275 N   0  0  0  0  0  0  0  0  0  0  0  0
    3.5908   -5.1498    7.1660 C   0  0  1  0  0  0  0  0  0  0  0  0
    4.1088   -5.8214    8.4421 C   0  0  0  0  0  0  0  0  0  0  0  0
    2.2573   -5.7340    6.6884 C   0  0  0  0  0  0  0  0  0  0  0  0
    4.2379   -2.7648    6.6161 C   0  0  0  0  0  0  0  0  0  0  0  0
    5.1435   -2.9785    5.6598 N   0  0  0  0  0  0  0  0  0  0  0  0
    7.2180   -0.8034    3.5293 C   0  0  0  0  0  0  0  0  0  0  0  0
    8.0009   -1.4272    2.3543 C   0  0  1  0  0  0  0  0  0  0  0  0
    9.3881   -0.8357    2.1079 C   0  0  0  0  0  0  0  0  0  0  0  0
   14.2547   -2.1120    5.1758 H   0  0  0  0  0  0  0  0  0  0  0  0
   14.0738   -0.7372    3.9048 H   0  0  0  0  0  0  0  0  0  0  0  0
   11.9074   -2.7456    4.7772 H   0  0  0  0  0  0  0  0  0  0  0  0
    9.3936   -2.5950    4.6946 H   0  0  0  0  0  0  0  0  0  0  0  0
   10.2070   -3.6542    3.5178 H   0  0  0  0  0  0  0  0  0  0  0  0
    8.3980   -3.5656    1.9878 H   0  0  0  0  0  0  0  0  0  0  0  0
    7.2820   -3.9277    4.5087 H   0  0  0  0  0  0  0  0  0  0  0  0
    6.2647   -3.7232    3.0767 H   0  0  0  0  0  0  0  0  0  0  0  0
    3.3762    0.8423    7.6812 H   0  0  0  0  0  0  0  0  0  0  0  0
    6.1742    1.7732    5.0152 H   0  0  0  0  0  0  0  0  0  0  0  0
    5.4147    6.1802    5.8383 H   0  0  0  0  0  0  0  0  0  0  0  0
    4.9135    6.0307    7.5523 H   0  0  0  0  0  0  0  0  0  0  0  0
    3.6754    6.0680    6.2558 H   0  0  0  0  0  0  0  0  0  0  0  0
    3.3149    3.5692    7.7436 H   0  0  0  0  0  0  0  0  0  0  0  0
    2.0197   -3.4537    8.8833 H   0  0  0  0  0  0  0  0  0  0  0  0
    4.3386   -5.2840    6.3692 H   0  0  0  0  0  0  0  0  0  0  0  0
    3.3988   -5.7041    9.2771 H   0  0  0  0  0  0  0  0  0  0  0  0
    5.0736   -5.3903    8.7493 H   0  0  0  0  0  0  0  0  0  0  0  0
    4.2518   -6.9003    8.2739 H   0  0  0  0  0  0  0  0  0  0  0  0
    1.4678   -5.6136    7.4482 H   0  0  0  0  0  0  0  0  0  0  0  0
    2.3644   -6.8111    6.4858 H   0  0  0  0  0  0  0  0  0  0  0  0
    1.9212   -5.2418    5.7633 H   0  0  0  0  0  0  0  0  0  0  0  0
    7.8877   -0.2556    4.2180 H   0  0  0  0  0  0  0  0  0  0  0  0
    6.4562   -0.0838    3.1913 H   0  0  0  0  0  0  0  0  0  0  0  0
    7.3868   -1.4117    1.4413 H   0  0  0  0  0  0  0  0  0  0  0  0
    9.4550    0.2450    2.3069 H   0  0  0  0  0  0  0  0  0  0  0  0
    9.7163   -0.9843    1.0635 H   0  0  0  0  0  0  0  0  0  0  0  0
  1  2  2  0
  1 32  1  0
  1 33  1  0
  2  3  1  0
  2 34  1  0
  3  4  2  0
  3  5  1  0
  5  6  1  0
  5 31  1  0
  6  7  1  0
  6 35  1  0
  6 36  1  0
  7  8  1  0
  7 30  1  0
  7 37  1  6
  8  9  1  0
  8 38  1  0
  8 39  1  0
  9 10  1  0
  9 29  1  0
 10 11  2  0
 10 28  1  0
 11 12  1  0
 12 13  1  0
 12 20  2  0
 13 14  1  0
 13 40  1  0
 14 15  1  0
 14 19  2  0
 15 16  2  0
 15 41  1  0
 16 17  1  0
 17 18  1  0
 17 19  1  0
 18 42  1  0
 18 43  1  0
 18 44  1  0
 19 45  1  0
 20 21  1  0
 20 27  1  0
 21 22  2  0
 22 23  1  0
 22 46  1  0
 23 24  1  0
 23 27  1  0
 24 25  1  0
 24 26  1  0
 24 47  1  6
 25 48  1  0
 25 49  1  0
 25 50  1  0
 26 51  1  0
 26 52  1  0
 26 53  1  0
 27 28  2  0
 29 30  1  0
 29 54  1  0
 29 55  1  0
 30 31  1  0
 30 56  1  6
 31 57  1  0
 31 58  1  0
M  END

