
     RDKit          3D

 85 84  0  0  0  0  0  0  0  0999 V2000
    1.2532    0.7189   -0.8722 C   0  0  0  0  0  0  0  0  0  0  0  0
    2.7792    0.6549   -0.7928 C   0  0  0  0  0  0  0  0  0  0  0  0
    3.3651   -0.6691   -1.2934 C   0  0  0  0  0  0  0  0  0  0  0  0
    4.8929   -0.7413   -1.2173 C   0  0  0  0  0  0  0  0  0  0  0  0
    5.4784   -2.0656   -1.7166 C   0  0  0  0  0  0  0  0  0  0  0  0
    7.0064   -2.1366   -1.6401 C   0  0  0  0  0  0  0  0  0  0  0  0
    7.5909   -3.4621   -2.1366 C   0  0  0  0  0  0  0  0  0  0  0  0
    9.1254   -3.5286   -2.0538 C   0  0  0  0  0  0  0  0  0  0  0  0
    9.7006   -4.8139   -2.5807 C   0  0  0  0  0  0  0  0  0  0  0  0
   10.4138   -5.6980   -1.8719 C   0  0  0  0  0  0  0  0  0  0  0  0
   10.9902   -6.9830   -2.3983 C   0  0  0  0  0  0  0  0  0  0  0  0
   12.5249   -7.0467   -2.3160 C   0  0  0  0  0  0  0  0  0  0  0  0
   13.1121   -8.3726   -2.8080 C   0  0  0  0  0  0  0  0  0  0  0  0
   14.6404   -8.4389   -2.7321 C   0  0  0  0  0  0  0  0  0  0  0  0
   15.2301   -9.7645   -3.2229 C   0  0  0  0  0  0  0  0  0  0  0  0
   16.7584   -9.8294   -3.1478 C   0  0  0  0  0  0  0  0  0  0  0  0
   17.3493  -11.1552   -3.6365 C   0  0  0  0  0  0  0  0  0  0  0  0
   18.8777  -11.2182   -3.5625 C   0  0  0  0  0  0  0  0  0  0  0  0
   19.4691  -12.5443   -4.0498 C   0  0  0  0  0  0  0  0  0  0  0  0
   20.9976  -12.6053   -3.9767 C   0  0  0  0  0  0  0  0  0  0  0  0
   21.5871  -13.9314   -4.4674 C   0  0  0  0  0  0  0  0  0  0  0  0
   23.1175  -13.9755   -4.4153 C   0  0  0  0  0  0  0  0  0  0  0  0
   23.7296  -15.3410   -4.7575 C   0  0  0  0  0  0  0  0  0  0  0  0
   23.2617  -15.9245   -6.0120 N   0  0  0  0  0  0  0  0  0  0  0  0
   23.6232  -15.1802   -7.2126 C   0  0  0  0  0  0  0  0  0  0  0  0
   22.7806  -15.5414   -8.4464 C   0  0  0  0  0  0  0  0  0  0  0  0
   21.3940  -15.4722   -8.2258 O   0  0  0  0  0  0  0  0  0  0  0  0
   23.4202  -17.3745   -6.0914 C   0  0  0  0  0  0  0  0  0  0  0  0
   22.1551  -18.0667   -5.5545 C   0  0  0  0  0  0  0  0  0  0  0  0
   20.9993  -17.4165   -6.0455 O   0  0  0  0  0  0  0  0  0  0  0  0
    0.8675    1.6834   -0.5047 H   0  0  0  0  0  0  0  0  0  0  0  0
    0.7864   -0.0775   -0.2684 H   0  0  0  0  0  0  0  0  0  0  0  0
    0.9000    0.5933   -1.9097 H   0  0  0  0  0  0  0  0  0  0  0  0
    3.1016    0.8221    0.2512 H   0  0  0  0  0  0  0  0  0  0  0  0
    3.2142    1.4872   -1.3760 H   0  0  0  0  0  0  0  0  0  0  0  0
    3.0432   -0.8375   -2.3383 H   0  0  0  0  0  0  0  0  0  0  0  0
    2.9307   -1.5028   -0.7102 H   0  0  0  0  0  0  0  0  0  0  0  0
    5.2142   -0.5719   -0.1725 H   0  0  0  0  0  0  0  0  0  0  0  0
    5.3267    0.0922   -1.8009 H   0  0  0  0  0  0  0  0  0  0  0  0
    5.1574   -2.2354   -2.7613 H   0  0  0  0  0  0  0  0  0  0  0  0
    5.0453   -2.8991   -1.1328 H   0  0  0  0  0  0  0  0  0  0  0  0
    7.3275   -1.9651   -0.5957 H   0  0  0  0  0  0  0  0  0  0  0  0
    7.4405   -1.3045   -2.2255 H   0  0  0  0  0  0  0  0  0  0  0  0
    7.2746   -3.6328   -3.1825 H   0  0  0  0  0  0  0  0  0  0  0  0
    7.1631   -4.2977   -1.5540 H   0  0  0  0  0  0  0  0  0  0  0  0
    9.4467   -3.3787   -1.0081 H   0  0  0  0  0  0  0  0  0  0  0  0
    9.5424   -2.6794   -2.6292 H   0  0  0  0  0  0  0  0  0  0  0  0
    9.4928   -5.0353   -3.6377 H   0  0  0  0  0  0  0  0  0  0  0  0
   10.6215   -5.4763   -0.8149 H   0  0  0  0  0  0  0  0  0  0  0  0
   10.6686   -7.1342   -3.4436 H   0  0  0  0  0  0  0  0  0  0  0  0
   10.5749   -7.8322   -1.8218 H   0  0  0  0  0  0  0  0  0  0  0  0
   12.8412   -6.8718   -1.2709 H   0  0  0  0  0  0  0  0  0  0  0  0
   12.9508   -6.2121   -2.9015 H   0  0  0  0  0  0  0  0  0  0  0  0
   12.7909   -8.5491   -3.8515 H   0  0  0  0  0  0  0  0  0  0  0  0
   12.6807   -9.2036   -2.2190 H   0  0  0  0  0  0  0  0  0  0  0  0
   14.9615   -8.2613   -1.6886 H   0  0  0  0  0  0  0  0  0  0  0  0
   15.0707   -7.6079   -3.3215 H   0  0  0  0  0  0  0  0  0  0  0  0
   14.9085   -9.9428   -4.2660 H   0  0  0  0  0  0  0  0  0  0  0  0
   14.8004  -10.5956   -2.6329 H   0  0  0  0  0  0  0  0  0  0  0  0
   17.0800   -9.6494   -2.1048 H   0  0  0  0  0  0  0  0  0  0  0  0
   17.1878   -8.9990   -3.7390 H   0  0  0  0  0  0  0  0  0  0  0  0
   17.0273  -11.3361   -4.6790 H   0  0  0  0  0  0  0  0  0  0  0  0
   16.9210  -11.9856   -3.0446 H   0  0  0  0  0  0  0  0  0  0  0  0
   19.2000  -11.0358   -2.5201 H   0  0  0  0  0  0  0  0  0  0  0  0
   19.3056  -10.3886   -4.1558 H   0  0  0  0  0  0  0  0  0  0  0  0
   19.1476  -12.7276   -5.0916 H   0  0  0  0  0  0  0  0  0  0  0  0
   19.0424  -13.3740   -3.4558 H   0  0  0  0  0  0  0  0  0  0  0  0
   21.3218  -12.4215   -2.9352 H   0  0  0  0  0  0  0  0  0  0  0  0
   21.4236  -11.7763   -4.5722 H   0  0  0  0  0  0  0  0  0  0  0  0
   21.2534  -14.1162   -5.5034 H   0  0  0  0  0  0  0  0  0  0  0  0
   21.1757  -14.7599   -3.8598 H   0  0  0  0  0  0  0  0  0  0  0  0
   23.4654  -13.7079   -3.4015 H   0  0  0  0  0  0  0  0  0  0  0  0
   23.5282  -13.1926   -5.0769 H   0  0  0  0  0  0  0  0  0  0  0  0
   23.4646  -16.0460   -3.9515 H   0  0  0  0  0  0  0  0  0  0  0  0
   24.8407  -15.2581   -4.7388 H   0  0  0  0  0  0  0  0  0  0  0  0
   24.7016  -15.2930   -7.4749 H   0  0  0  0  0  0  0  0  0  0  0  0
   23.4634  -14.1124   -7.0031 H   0  0  0  0  0  0  0  0  0  0  0  0
   23.0768  -16.5342   -8.8400 H   0  0  0  0  0  0  0  0  0  0  0  0
   23.0303  -14.8171   -9.2405 H   0  0  0  0  0  0  0  0  0  0  0  0
   21.1300  -16.2759   -7.7466 H   0  0  0  0  0  0  0  0  0  0  0  0
   24.3209  -17.7352   -5.5532 H   0  0  0  0  0  0  0  0  0  0  0  0
   23.5547  -17.6621   -7.1443 H   0  0  0  0  0  0  0  0  0  0  0  0
   22.1570  -18.0694   -4.4456 H   0  0  0  0  0  0  0  0  0  0  0  0
   22.1230  -19.1190   -5.8790 H   0  0  0  0  0  0  0  0  0  0  0  0
   21.1782  -16.4738   -5.8672 H   0  0  0  0  0  0  0  0  0  0  0  0
  1  2  1  0
  1 31  1  0
  1 32  1  0
  1 33  1  0
  2  3  1  0
  2 34  1  0
  2 35  1  0
  3  4  1  0
  3 36  1  0
  3 37  1  0
  4  5  1  0
  4 38  1  0
  4 39  1  0
  5  6  1  0
  5 40  1  0
  5 41  1  0
  6  7  1  0
  6 42  1  0
  6 43  1  0
  7  8  1  0
  7 44  1  0
  7 45  1  0
  8  9  1  0
  8 46  1  0
  8 47  1  0
  9 10  2  0
  9 48  1  0
 10 11  1  0
 10 49  1  0
 11 12  1  0
 11 50  1  0
 11 51  1  0
 12 13  1  0
 12 52  1  0
 12 53  1  0
 13 14  1  0
 13 54  1  0
 13 55  1  0
 14 15  1  0
 14 56  1  0
 14 57  1  0
 15 16  1  0
 15 58  1  0
 15 59  1  0
 16 17  1  0
 16 60  1  0
 16 61  1  0
 17 18  1  0
 17 62  1  0
 17 63  1  0
 18 19  1  0
 18 64  1  0
 18 65  1  0
 19 20  1  0
 19 66  1  0
 19 67  1  0
 20 21  1  0
 20 68  1  0
 20 69  1  0
 21 22  1  0
 21 70  1  0
 21 71  1  0
 22 23  1  0
 22 72  1  0
 22 73  1  0
 23 24  1  0
 23 74  1  0
 23 75  1  0
 24 25  1  0
 24 28  1  0
 25 26  1  0
 25 76  1  0
 25 77  1  0
 26 27  1  0
 26 78  1  0
 26 79  1  0
 27 80  1  0
 28 29  1  0
 28 81  1  0
 28 82  1  0
 29 30  1  0
 29 83  1  0
 29 84  1  0
 30 85  1  0
M  END

