
     RDKit          3D

 36 37  0  0  0  0  0  0  0  0999 V2000
    2.7755    0.7774   -0.5735 C   0  0  0  0  0  0  0  0  0  0  0  0
    2.3386    0.2822    0.6714 O   0  0  0  0  0  0  0  0  0  0  0  0
    3.1034   -0.6235    1.3323 C   0  0  0  0  0  0  0  0  0  0  0  0
    2.6071   -1.0710    2.5690 C   0  0  0  0  0  0  0  0  0  0  0  0
    3.3244   -1.9980    3.3183 C   0  0  0  0  0  0  0  0  0  0  0  0
    4.5556   -2.5102    2.8700 C   0  0  0  0  0  0  0  0  0  0  0  0
    5.3104   -3.5511    3.6660 C   0  0  0  0  0  0  0  0  0  0  0  0
    4.9625   -4.9900    3.2330 C   0  0  0  0  0  0  0  0  0  0  0  0
    5.6713   -6.0033    3.9923 N   0  0  0  0  0  0  0  0  0  0  0  0
    6.7259   -6.6900    3.5240 C   0  0  0  0  0  0  0  0  0  0  0  0
    7.2228   -6.6053    2.4059 O   0  0  0  0  0  0  0  0  0  0  0  0
    7.2968   -7.6733    4.5775 C   0  0  0  0  0  0  0  0  0  0  0  0
    6.8384   -7.7708    5.6937 O   0  0  0  0  0  0  0  0  0  0  0  0
    8.3497   -8.3573    4.0275 N   0  0  0  0  0  0  0  0  0  0  0  0
    9.1460   -9.3248    4.6101 C   0  0  0  0  0  0  0  0  0  0  0  0
    9.0861   -9.8092    5.8318 N   0  0  0  0  0  0  0  0  0  0  0  0
   10.1004  -10.7192    5.8424 C   0  0  0  0  0  0  0  0  0  0  0  0
   10.7786  -10.8278    4.7151 N   0  0  0  0  0  0  0  0  0  0  0  0
   10.1565   -9.9239    3.9215 N   0  0  0  0  0  0  0  0  0  0  0  0
   10.4656   -9.7812    2.9666 H   0  0  0  0  0  0  0  0  0  0  0  0
    5.0363   -2.0539    1.6363 C   0  0  0  0  0  0  0  0  0  0  0  0
    4.3300   -1.1219    0.8675 C   0  0  0  0  0  0  0  0  0  0  0  0
    2.0087    1.4854   -0.9159 H   0  0  0  0  0  0  0  0  0  0  0  0
    2.8789   -0.0273   -1.3242 H   0  0  0  0  0  0  0  0  0  0  0  0
    3.7406    1.3096   -0.4904 H   0  0  0  0  0  0  0  0  0  0  0  0
    1.6548   -0.6694    2.9213 H   0  0  0  0  0  0  0  0  0  0  0  0
    2.9219   -2.3270    4.2813 H   0  0  0  0  0  0  0  0  0  0  0  0
    5.0885   -3.4371    4.7406 H   0  0  0  0  0  0  0  0  0  0  0  0
    6.3971   -3.4078    3.5493 H   0  0  0  0  0  0  0  0  0  0  0  0
    5.2244   -5.1364    2.1754 H   0  0  0  0  0  0  0  0  0  0  0  0
    3.8774   -5.1578    3.3335 H   0  0  0  0  0  0  0  0  0  0  0  0
    5.4228   -6.2019    4.9594 H   0  0  0  0  0  0  0  0  0  0  0  0
    8.5231   -8.0719    3.0615 H   0  0  0  0  0  0  0  0  0  0  0  0
   10.3445  -11.3219    6.7168 H   0  0  0  0  0  0  0  0  0  0  0  0
    5.9933   -2.4279    1.2598 H   0  0  0  0  0  0  0  0  0  0  0  0
    4.7468   -0.7916   -0.0841 H   0  0  0  0  0  0  0  0  0  0  0  0
  1  2  1  0
  1 23  1  0
  1 24  1  0
  1 25  1  0
  2  3  1  0
  3  4  2  0
  3 22  1  0
  4  5  1  0
  4 26  1  0
  5  6  2  0
  5 27  1  0
  6  7  1  0
  6 21  1  0
  7  8  1  0
  7 28  1  0
  7 29  1  0
  8  9  1  0
  8 30  1  0
  8 31  1  0
  9 10  1  0
  9 32  1  0
 10 11  2  0
 10 12  1  0
 12 13  2  0
 12 14  1  0
 14 15  1  0
 14 33  1  0
 15 16  2  0
 15 19  1  0
 16 17  1  0
 17 18  2  0
 17 34  1  0
 18 19  1  0
 19 20  1  0
 21 22  2  0
 21 35  1  0
 22 36  1  0
M  END

