
     RDKit          3D

 35 36  0  0  0  0  0  0  0  0999 V2000
    4.9706   -0.4118   -8.1423 C   0  0  0  0  0  0  0  0  0  0  0  0
    5.5299   -1.6680   -7.8358 O   0  0  0  0  0  0  0  0  0  0  0  0
    5.3088   -2.2101   -6.6079 C   0  0  0  0  0  0  0  0  0  0  0  0
    4.5270   -1.6205   -5.6073 C   0  0  0  0  0  0  0  0  0  0  0  0
    4.3756   -2.2415   -4.3613 C   0  0  0  0  0  0  0  0  0  0  0  0
    5.0014   -3.4596   -4.0949 C   0  0  0  0  0  0  0  0  0  0  0  0
    4.8936   -4.1180   -2.7371 C   0  0  2  0  0  0  0  0  0  0  0  0
    5.7964   -3.8697   -2.1313 H   0  0  0  0  0  0  0  0  0  0  0  0
    4.8597   -5.5169   -2.8976 O   0  0  0  0  0  0  0  0  0  0  0  0
    4.8087   -6.1843   -1.6484 C   0  0  0  0  0  0  0  0  0  0  0  0
    3.5776   -5.7322   -0.8629 C   0  0  0  0  0  0  0  0  0  0  0  0
    3.5211   -4.1960   -0.7748 C   0  0  1  0  0  0  0  0  0  0  0  0
    2.4888   -3.8947   -0.5360 H   0  0  0  0  0  0  0  0  0  0  0  0
    4.4407   -3.5889    0.2889 C   0  0  0  0  0  0  0  0  0  0  0  0
    3.7508   -3.6378   -2.0745 O   0  0  0  0  0  0  0  0  0  0  0  0
    5.7746   -4.0580   -5.1010 C   0  0  0  0  0  0  0  0  0  0  0  0
    5.9352   -3.4550   -6.3466 C   0  0  0  0  0  0  0  0  0  0  0  0
    6.7463   -4.0539   -7.2698 O   0  0  0  0  0  0  0  0  0  0  0  0
    6.1336   -4.5441   -8.4518 C   0  0  0  0  0  0  0  0  0  0  0  0
    5.2929   -0.1658   -9.1632 H   0  0  0  0  0  0  0  0  0  0  0  0
    5.3291    0.3755   -7.4548 H   0  0  0  0  0  0  0  0  0  0  0  0
    3.8659   -0.4318   -8.1112 H   0  0  0  0  0  0  0  0  0  0  0  0
    4.0307   -0.6666   -5.7874 H   0  0  0  0  0  0  0  0  0  0  0  0
    3.7601   -1.7751   -3.5918 H   0  0  0  0  0  0  0  0  0  0  0  0
    5.7400   -5.9905   -1.0764 H   0  0  0  0  0  0  0  0  0  0  0  0
    4.7714   -7.2626   -1.8633 H   0  0  0  0  0  0  0  0  0  0  0  0
    3.5695   -6.1805    0.1444 H   0  0  0  0  0  0  0  0  0  0  0  0
    2.6803   -6.0857   -1.3958 H   0  0  0  0  0  0  0  0  0  0  0  0
    5.4918   -3.8958    0.1771 H   0  0  0  0  0  0  0  0  0  0  0  0
    4.1099   -3.8976    1.2935 H   0  0  0  0  0  0  0  0  0  0  0  0
    4.3999   -2.4903    0.2356 H   0  0  0  0  0  0  0  0  0  0  0  0
    6.2655   -5.0165   -4.9289 H   0  0  0  0  0  0  0  0  0  0  0  0
    6.9231   -5.0406   -9.0339 H   0  0  0  0  0  0  0  0  0  0  0  0
    5.6963   -3.7330   -9.0556 H   0  0  0  0  0  0  0  0  0  0  0  0
    5.3469   -5.2846   -8.2161 H   0  0  0  0  0  0  0  0  0  0  0  0
  1  2  1  0
  1 20  1  0
  1 21  1  0
  1 22  1  0
  2  3  1  0
  3  4  2  0
  3 17  1  0
  4  5  1  0
  4 23  1  0
  5  6  2  0
  5 24  1  0
  6  7  1  0
  6 16  1  0
  7  8  1  1
  7  9  1  0
  7 15  1  0
  9 10  1  0
 10 11  1  0
 10 25  1  0
 10 26  1  0
 11 12  1  0
 11 27  1  0
 11 28  1  0
 12 13  1  1
 12 14  1  0
 12 15  1  0
 14 29  1  0
 14 30  1  0
 14 31  1  0
 16 17  2  0
 16 32  1  0
 17 18  1  0
 18 19  1  0
 19 33  1  0
 19 34  1  0
 19 35  1  0
M  END

