
     RDKit          3D

 40 42  0  0  0  0  0  0  0  0999 V2000
    4.0699    1.2473    0.7766 N   0  0  0  0  0  0  0  0  0  0  0  0
    4.3584    0.0829    1.4789 C   0  0  0  0  0  0  0  0  0  0  0  0
    4.4616   -0.0240    2.7530 N   0  0  0  0  0  0  0  0  0  0  0  0
    4.1490    1.1256    3.5710 C   0  0  0  0  0  0  0  0  0  0  0  0
    4.1158    0.7743    5.0566 C   0  0  1  0  0  0  0  0  0  0  0  0
    5.4574    0.3971    5.6976 C   0  0  0  0  0  0  0  0  0  0  0  0
    5.2500    0.8446    7.1494 C   0  0  0  0  0  0  0  0  0  0  0  0
    4.4058    2.1113    6.9711 C   0  0  0  0  0  0  0  0  0  0  0  0
    3.6613    1.9267    5.7721 O   0  0  0  0  0  0  0  0  0  0  0  0
    4.5626   -1.0114    0.6375 N   0  0  0  0  0  0  0  0  0  0  0  0
    5.0338   -2.2467    1.1846 C   0  0  2  0  0  0  0  0  0  0  0  0
    5.9730   -2.1934    1.7514 H   0  0  0  0  0  0  0  0  0  0  0  0
    4.7854   -3.5164    0.4109 C   0  0  0  0  0  0  0  0  0  0  0  0
    4.0323   -3.2507    1.6924 C   0  0  1  0  0  0  0  0  0  0  0  0
    2.9894   -2.9416    1.5556 H   0  0  0  0  0  0  0  0  0  0  0  0
    4.2977   -3.9979    2.9640 C   0  0  0  0  0  0  0  0  0  0  0  0
    4.5628   -3.2654    4.1318 C   0  0  0  0  0  0  0  0  0  0  0  0
    4.7757   -3.9320    5.3316 C   0  0  0  0  0  0  0  0  0  0  0  0
    5.0403   -3.2457    6.4510 F   0  0  0  0  0  0  0  0  0  0  0  0
    4.7336   -5.3277    5.4038 C   0  0  0  0  0  0  0  0  0  0  0  0
    4.9454   -5.9587    6.5581 F   0  0  0  0  0  0  0  0  0  0  0  0
    4.4677   -6.0470    4.2356 C   0  0  0  0  0  0  0  0  0  0  0  0
    4.4295   -7.3812    4.3051 F   0  0  0  0  0  0  0  0  0  0  0  0
    4.2528   -5.3981    3.0224 C   0  0  0  0  0  0  0  0  0  0  0  0
    3.7272    2.0238    1.3297 H   0  0  0  0  0  0  0  0  0  0  0  0
    3.5663    1.1278   -0.0964 H   0  0  0  0  0  0  0  0  0  0  0  0
    3.1587    1.5668    3.3248 H   0  0  0  0  0  0  0  0  0  0  0  0
    4.8891    1.9434    3.4386 H   0  0  0  0  0  0  0  0  0  0  0  0
    3.3901   -0.0527    5.1985 H   0  0  0  0  0  0  0  0  0  0  0  0
    6.2750    0.9689    5.2252 H   0  0  0  0  0  0  0  0  0  0  0  0
    5.6919   -0.6715    5.6064 H   0  0  0  0  0  0  0  0  0  0  0  0
    6.1890    1.0266    7.6939 H   0  0  0  0  0  0  0  0  0  0  0  0
    4.6846    0.0769    7.7030 H   0  0  0  0  0  0  0  0  0  0  0  0
    5.0475    3.0096    6.8768 H   0  0  0  0  0  0  0  0  0  0  0  0
    3.7105    2.2875    7.8101 H   0  0  0  0  0  0  0  0  0  0  0  0
    4.9831   -0.7616   -0.2536 H   0  0  0  0  0  0  0  0  0  0  0  0
    5.5779   -4.2698    0.4151 H   0  0  0  0  0  0  0  0  0  0  0  0
    4.2259   -3.4434   -0.5254 H   0  0  0  0  0  0  0  0  0  0  0  0
    4.6030   -2.1742    4.0844 H   0  0  0  0  0  0  0  0  0  0  0  0
    4.0515   -6.0018    2.1354 H   0  0  0  0  0  0  0  0  0  0  0  0
  1  2  1  0
  1 25  1  0
  1 26  1  0
  2  3  2  0
  2 10  1  0
  3  4  1  0
  4  5  1  0
  4 27  1  0
  4 28  1  0
  5  6  1  0
  5  9  1  0
  5 29  1  6
  6  7  1  0
  6 30  1  0
  6 31  1  0
  7  8  1  0
  7 32  1  0
  7 33  1  0
  8  9  1  0
  8 34  1  0
  8 35  1  0
 10 11  1  0
 10 36  1  0
 11 12  1  1
 11 13  1  0
 11 14  1  0
 13 14  1  0
 13 37  1  0
 13 38  1  0
 14 15  1  6
 14 16  1  0
 16 17  2  0
 16 24  1  0
 17 18  1  0
 17 39  1  0
 18 19  1  0
 18 20  2  0
 20 21  1  0
 20 22  1  0
 22 23  1  0
 22 24  2  0
 24 40  1  0
M  END

