
     RDKit          3D

 43 44  0  0  0  0  0  0  0  0999 V2000
    1.0607    0.7217   -0.3691 C   0  0  0  0  0  0  0  0  0  0  0  0
    1.8714    0.0536    0.5645 O   0  0  0  0  0  0  0  0  0  0  0  0
    2.5211    0.8541    1.5543 C   0  0  1  0  0  0  0  0  0  0  0  0
    2.0013    0.3327    2.9328 C   0  0  1  0  0  0  0  0  0  0  0  0
    2.6121    0.8998    4.1294 N   0  0  0  0  0  0  0  0  0  0  0  0
    0.4724    0.4896    3.0200 C   0  0  0  0  0  0  0  0  0  0  0  0
   -0.1890   -0.1864    4.2240 C   0  0  2  0  0  0  0  0  0  0  0  0
   -1.7739   -0.1743    4.2323 C   0  0  0  0  0  0  0  0  0  0  0  0
   -1.6783    0.5104    5.5845 C   0  0  0  0  0  0  0  0  0  0  0  0
   -2.4221    1.0214    6.6425 C   0  0  0  0  0  0  0  0  0  0  0  0
   -1.6850    1.5671    7.7084 C   0  0  0  0  0  0  0  0  0  0  0  0
   -0.2802    1.5850    7.6982 C   0  0  0  0  0  0  0  0  0  0  0  0
    0.4592    1.0596    6.6236 C   0  0  0  0  0  0  0  0  0  0  0  0
   -0.2813    0.5268    5.5736 C   0  0  0  0  0  0  0  0  0  0  0  0
    4.0718    0.8159    1.2981 C   0  0  1  0  0  0  0  0  0  0  0  0
    4.3294    1.0468   -0.2066 C   0  0  0  0  0  0  0  0  0  0  0  0
    4.8053    1.9460    2.0510 C   0  0  0  0  0  0  0  0  0  0  0  0
    4.6564   -0.5566    1.6813 C   0  0  0  0  0  0  0  0  0  0  0  0
    0.6399   -0.0403   -1.0431 H   0  0  0  0  0  0  0  0  0  0  0  0
    1.6259    1.4493   -0.9810 H   0  0  0  0  0  0  0  0  0  0  0  0
    0.2203    1.2578    0.1132 H   0  0  0  0  0  0  0  0  0  0  0  0
    2.1990    1.9098    1.4442 H   0  0  0  0  0  0  0  0  0  0  0  0
    2.2125   -0.7503    2.9448 H   0  0  0  0  0  0  0  0  0  0  0  0
    2.5357    1.9168    4.1496 H   0  0  0  0  0  0  0  0  0  0  0  0
    3.5955    0.6606    4.2152 H   0  0  0  0  0  0  0  0  0  0  0  0
    0.0370    0.0499    2.1107 H   0  0  0  0  0  0  0  0  0  0  0  0
    0.2095    1.5649    3.0133 H   0  0  0  0  0  0  0  0  0  0  0  0
    0.2062   -1.2130    4.3237 H   0  0  0  0  0  0  0  0  0  0  0  0
   -2.2499   -1.1690    4.2226 H   0  0  0  0  0  0  0  0  0  0  0  0
   -2.2210    0.4339    3.4280 H   0  0  0  0  0  0  0  0  0  0  0  0
   -3.5155    1.0103    6.6648 H   0  0  0  0  0  0  0  0  0  0  0  0
   -2.2141    1.9878    8.5683 H   0  0  0  0  0  0  0  0  0  0  0  0
    0.2479    2.0187    8.5524 H   0  0  0  0  0  0  0  0  0  0  0  0
    1.5502    1.0706    6.6118 H   0  0  0  0  0  0  0  0  0  0  0  0
    3.9270    2.0174   -0.5412 H   0  0  0  0  0  0  0  0  0  0  0  0
    3.8778    0.2549   -0.8192 H   0  0  0  0  0  0  0  0  0  0  0  0
    5.4133    1.0566   -0.4048 H   0  0  0  0  0  0  0  0  0  0  0  0
    4.3723    2.9313    1.8093 H   0  0  0  0  0  0  0  0  0  0  0  0
    5.8652    1.9718    1.7490 H   0  0  0  0  0  0  0  0  0  0  0  0
    4.7817    1.8328    3.1419 H   0  0  0  0  0  0  0  0  0  0  0  0
    4.1077   -1.3658    1.1750 H   0  0  0  0  0  0  0  0  0  0  0  0
    4.6158   -0.7465    2.7657 H   0  0  0  0  0  0  0  0  0  0  0  0
    5.7143   -0.6239    1.3795 H   0  0  0  0  0  0  0  0  0  0  0  0
  1  2  1  0
  1 19  1  0
  1 20  1  0
  1 21  1  0
  2  3  1  0
  3  4  1  0
  3 15  1  0
  3 22  1  6
  4  5  1  0
  4  6  1  0
  4 23  1  6
  5 24  1  0
  5 25  1  0
  6  7  1  0
  6 26  1  0
  6 27  1  0
  7  8  1  0
  7 14  1  0
  7 28  1  1
  8  9  1  0
  8 29  1  0
  8 30  1  0
  9 10  1  0
  9 14  2  0
 10 11  2  0
 10 31  1  0
 11 12  1  0
 11 32  1  0
 12 13  2  0
 12 33  1  0
 13 14  1  0
 13 34  1  0
 15 16  1  6
 15 17  1  0
 15 18  1  0
 16 35  1  0
 16 36  1  0
 16 37  1  0
 17 38  1  0
 17 39  1  0
 17 40  1  0
 18 41  1  0
 18 42  1  0
 18 43  1  0
M  END

