
     RDKit          3D

 67 72  0  0  0  0  0  0  0  0999 V2000
    7.4587    4.6869    1.2321 C   0  0  0  0  0  0  0  0  0  0  0  0
    7.1014    3.4823    0.5957 O   0  0  0  0  0  0  0  0  0  0  0  0
    5.7953    3.2542    0.2820 C   0  0  0  0  0  0  0  0  0  0  0  0
    4.7563    4.1371    0.5923 C   0  0  0  0  0  0  0  0  0  0  0  0
    3.4382    3.8521    0.1886 C   0  0  0  0  0  0  0  0  0  0  0  0
    2.2686    4.7845    0.5279 C   0  0  2  0  0  0  0  0  0  0  0  0
    1.5427    4.6851   -0.2938 H   0  0  0  0  0  0  0  0  0  0  0  0
    2.6933    6.2557    0.5955 C   0  0  0  0  0  0  0  0  0  0  0  0
    3.0093    6.8914   -0.6308 C   0  0  0  0  0  0  0  0  0  0  0  0
    3.4466    8.1982   -0.5997 C   0  0  0  0  0  0  0  0  0  0  0  0
    3.5904    8.8957    0.6046 C   0  0  0  0  0  0  0  0  0  0  0  0
    3.2954    8.3084    1.8150 C   0  0  0  0  0  0  0  0  0  0  0  0
    2.8321    6.9647    1.8091 C   0  0  0  0  0  0  0  0  0  0  0  0
    2.4630    6.3579    3.1591 C   0  0  1  0  0  0  0  0  0  0  0  0
    3.1943    6.6644    3.9190 H   0  0  0  0  0  0  0  0  0  0  0  0
    1.1723    6.8987    3.5926 O   0  0  0  0  0  0  0  0  0  0  0  0
    1.1474    7.9234    4.4600 C   0  0  0  0  0  0  0  0  0  0  0  0
    2.1366    8.4565    4.9100 O   0  0  0  0  0  0  0  0  0  0  0  0
   -0.2491    8.3483    4.8038 C   0  0  0  0  0  0  0  0  0  0  0  0
   -0.3707    9.4629    5.6499 C   0  0  0  0  0  0  0  0  0  0  0  0
   -1.6223    9.9340    6.0398 C   0  0  0  0  0  0  0  0  0  0  0  0
   -2.7760    9.2834    5.5924 C   0  0  0  0  0  0  0  0  0  0  0  0
   -2.6706    8.1685    4.7588 C   0  0  0  0  0  0  0  0  0  0  0  0
   -1.4156    7.6946    4.3475 C   0  0  0  0  0  0  0  0  0  0  0  0
   -1.4125    6.4488    3.4869 C   0  0  0  0  0  0  0  0  0  0  0  0
   -1.5523    5.3429    3.9314 O   0  0  0  0  0  0  0  0  0  0  0  0
   -1.3337    6.6533    2.1553 O   0  0  0  0  0  0  0  0  0  0  0  0
    2.3411    4.8472    3.0628 C   0  0  1  0  0  0  0  0  0  0  0  0
    3.3671    4.4591    2.9434 H   0  0  0  0  0  0  0  0  0  0  0  0
    1.6517    4.0357    4.1650 C   0  0  0  0  0  0  0  0  0  0  0  0
    1.2375    2.8293    3.4971 O   0  0  0  0  0  0  0  0  0  0  0  0
    1.1358    3.0078    2.1513 C   0  0  0  0  0  0  0  0  0  0  0  0
    0.7505    2.1469    1.4129 O   0  0  0  0  0  0  0  0  0  0  0  0
    1.5358    4.4423    1.8348 C   0  0  2  0  0  0  0  0  0  0  0  0
    0.5831    5.0042    1.8350 H   0  0  0  0  0  0  0  0  0  0  0  0
    4.0231   10.1657    0.3423 O   0  0  0  0  0  0  0  0  0  0  0  0
    4.2895   10.2163   -1.0566 C   0  0  0  0  0  0  0  0  0  0  0  0
    3.7844    9.0162   -1.6383 O   0  0  0  0  0  0  0  0  0  0  0  0
    3.1910    2.6835   -0.5279 C   0  0  0  0  0  0  0  0  0  0  0  0
    4.2232    1.7805   -0.8410 C   0  0  0  0  0  0  0  0  0  0  0  0
    3.8450    0.7126   -1.5863 O   0  0  0  0  0  0  0  0  0  0  0  0
    4.5083   -0.5368   -1.5173 C   0  0  0  0  0  0  0  0  0  0  0  0
    5.5440    2.0570   -0.4338 C   0  0  0  0  0  0  0  0  0  0  0  0
    6.5720    1.2385   -0.8177 O   0  0  0  0  0  0  0  0  0  0  0  0
    7.3062    0.5749    0.2017 C   0  0  0  0  0  0  0  0  0  0  0  0
    8.5499    4.6634    1.3560 H   0  0  0  0  0  0  0  0  0  0  0  0
    6.9891    4.7852    2.2279 H   0  0  0  0  0  0  0  0  0  0  0  0
    7.1859    5.5687    0.6251 H   0  0  0  0  0  0  0  0  0  0  0  0
    4.9723    5.0685    1.1123 H   0  0  0  0  0  0  0  0  0  0  0  0
    2.9175    6.3533   -1.5758 H   0  0  0  0  0  0  0  0  0  0  0  0
    3.4044    8.8546    2.7528 H   0  0  0  0  0  0  0  0  0  0  0  0
    0.5471    9.9431    5.9936 H   0  0  0  0  0  0  0  0  0  0  0  0
   -1.6990   10.8037    6.6964 H   0  0  0  0  0  0  0  0  0  0  0  0
   -3.7631    9.6388    5.8984 H   0  0  0  0  0  0  0  0  0  0  0  0
   -3.5729    7.6503    4.4250 H   0  0  0  0  0  0  0  0  0  0  0  0
   -1.1461    7.5852    1.9681 H   0  0  0  0  0  0  0  0  0  0  0  0
    0.7593    4.5418    4.5628 H   0  0  0  0  0  0  0  0  0  0  0  0
    2.3152    3.7504    4.9938 H   0  0  0  0  0  0  0  0  0  0  0  0
    5.3818   10.2811   -1.2276 H   0  0  0  0  0  0  0  0  0  0  0  0
    3.7812   11.0876   -1.5017 H   0  0  0  0  0  0  0  0  0  0  0  0
    2.1811    2.4144   -0.8380 H   0  0  0  0  0  0  0  0  0  0  0  0
    3.8192   -1.2685   -1.9640 H   0  0  0  0  0  0  0  0  0  0  0  0
    4.7053   -0.8344   -0.4724 H   0  0  0  0  0  0  0  0  0  0  0  0
    5.4560   -0.5361   -2.0748 H   0  0  0  0  0  0  0  0  0  0  0  0
    8.0221   -0.0865   -0.3072 H   0  0  0  0  0  0  0  0  0  0  0  0
    6.6430   -0.0394    0.8386 H   0  0  0  0  0  0  0  0  0  0  0  0
    7.8565    1.2856    0.8358 H   0  0  0  0  0  0  0  0  0  0  0  0
  1  2  1  0
  1 46  1  0
  1 47  1  0
  1 48  1  0
  2  3  1  0
  3  4  2  0
  3 43  1  0
  4  5  1  0
  4 49  1  0
  5  6  1  0
  5 39  2  0
  6  7  1  6
  6  8  1  0
  6 34  1  0
  8  9  2  0
  8 13  1  0
  9 10  1  0
  9 50  1  0
 10 11  2  0
 10 38  1  0
 11 12  1  0
 11 36  1  0
 12 13  2  0
 12 51  1  0
 13 14  1  0
 14 15  1  1
 14 16  1  0
 14 28  1  0
 16 17  1  0
 17 18  2  0
 17 19  1  0
 19 20  2  0
 19 24  1  0
 20 21  1  0
 20 52  1  0
 21 22  2  0
 21 53  1  0
 22 23  1  0
 22 54  1  0
 23 24  2  0
 23 55  1  0
 24 25  1  0
 25 26  2  0
 25 27  1  0
 27 56  1  0
 28 29  1  6
 28 30  1  0
 28 34  1  0
 30 31  1  0
 30 57  1  0
 30 58  1  0
 31 32  1  0
 32 33  2  0
 32 34  1  0
 34 35  1  6
 36 37  1  0
 37 38  1  0
 37 59  1  0
 37 60  1  0
 39 40  1  0
 39 61  1  0
 40 41  1  0
 40 43  2  0
 41 42  1  0
 42 62  1  0
 42 63  1  0
 42 64  1  0
 43 44  1  0
 44 45  1  0
 45 65  1  0
 45 66  1  0
 45 67  1  0
M  END

