
     RDKit          3D

 36 37  0  0  0  0  0  0  0  0999 V2000
    3.9701   -5.5036    0.5169 C   0  0  0  0  0  0  0  0  0  0  0  0
    3.2580   -5.0141   -0.7217 C   0  0  0  0  0  0  0  0  0  0  0  0
    3.4272   -5.7375   -1.9168 C   0  0  0  0  0  0  0  0  0  0  0  0
    2.8211   -5.3540   -3.1125 C   0  0  0  0  0  0  0  0  0  0  0  0
    2.0164   -4.2157   -3.1580 C   0  0  0  0  0  0  0  0  0  0  0  0
    1.8428   -3.4896   -1.9877 C   0  0  0  0  0  0  0  0  0  0  0  0
    1.0733   -2.3935   -2.0347 F   0  0  0  0  0  0  0  0  0  0  0  0
    2.4296   -3.8674   -0.7694 C   0  0  0  0  0  0  0  0  0  0  0  0
    2.1361   -2.7734    0.6465 S   0  0  1  0  0  0  0  0  0  0  0  0
    2.6305   -3.4512    1.8481 O   0  0  0  0  0  0  0  0  0  0  0  0
    2.6306   -1.4460    0.2782 O   0  0  0  0  0  0  0  0  0  0  0  0
    0.4735   -2.6819    0.7732 N   0  0  0  0  0  0  0  0  0  0  0  0
   -0.2437   -3.5264    1.7463 C   0  0  0  0  0  0  0  0  0  0  0  0
   -1.6061   -2.8275    1.9117 C   0  0  1  0  0  0  0  0  0  0  0  0
   -2.2820   -3.1622    1.1069 H   0  0  0  0  0  0  0  0  0  0  0  0
   -2.2788   -3.0935    3.2550 C   0  0  0  0  0  0  0  0  0  0  0  0
   -1.2730   -1.3527    1.6242 C   0  0  2  0  0  0  0  0  0  0  0  0
   -0.7747   -0.9120    2.5091 H   0  0  0  0  0  0  0  0  0  0  0  0
   -2.4800   -0.4893    1.2792 C   0  0  0  0  0  0  0  0  0  0  0  0
   -3.6069   -0.8929    1.1901 O   0  0  0  0  0  0  0  0  0  0  0  0
   -2.2015    0.8150    1.0489 O   0  0  0  0  0  0  0  0  0  0  0  0
   -0.2484   -1.4402    0.4727 C   0  0  0  0  0  0  0  0  0  0  0  0
    4.5912   -6.3751    0.2672 H   0  0  0  0  0  0  0  0  0  0  0  0
    3.2603   -5.7872    1.3069 H   0  0  0  0  0  0  0  0  0  0  0  0
    4.6090   -4.7250    0.9560 H   0  0  0  0  0  0  0  0  0  0  0  0
    4.0616   -6.6265   -1.8984 H   0  0  0  0  0  0  0  0  0  0  0  0
    2.9789   -5.9442   -4.0182 H   0  0  0  0  0  0  0  0  0  0  0  0
    1.5281   -3.8755   -4.0726 H   0  0  0  0  0  0  0  0  0  0  0  0
    0.3058   -3.5642    2.7010 H   0  0  0  0  0  0  0  0  0  0  0  0
   -0.3552   -4.5608    1.3810 H   0  0  0  0  0  0  0  0  0  0  0  0
   -1.6560   -2.7348    4.0920 H   0  0  0  0  0  0  0  0  0  0  0  0
   -2.4512   -4.1715    3.4043 H   0  0  0  0  0  0  0  0  0  0  0  0
   -3.2541   -2.5880    3.3022 H   0  0  0  0  0  0  0  0  0  0  0  0
   -1.2572    0.9925    1.1684 H   0  0  0  0  0  0  0  0  0  0  0  0
    0.4520   -0.5950    0.4253 H   0  0  0  0  0  0  0  0  0  0  0  0
   -0.7608   -1.5107   -0.5024 H   0  0  0  0  0  0  0  0  0  0  0  0
  1  2  1  0
  1 23  1  0
  1 24  1  0
  1 25  1  0
  2  3  2  0
  2  8  1  0
  3  4  1  0
  3 26  1  0
  4  5  2  0
  4 27  1  0
  5  6  1  0
  5 28  1  0
  6  7  1  0
  6  8  2  0
  9  8  1  6
  9 10  2  0
  9 11  2  0
  9 12  1  0
 12 13  1  0
 12 22  1  0
 13 14  1  0
 13 29  1  0
 13 30  1  0
 14 15  1  6
 14 16  1  0
 14 17  1  0
 16 31  1  0
 16 32  1  0
 16 33  1  0
 17 18  1  1
 17 19  1  0
 17 22  1  0
 19 20  2  0
 19 21  1  0
 21 34  1  0
 22 35  1  0
 22 36  1  0
M  END

