
     RDKit          3D

 14 13  0  0  0  0  0  0  0  0999 V2000
    0.9571    0.1742   -0.4328 H   0  0  0  0  0  0  0  0  0  0  0  0
    2.0275    0.1115   -0.1777 C   0  0  0  0  0  0  0  0  0  0  0  0
    2.7376   -0.9308   -1.0447 C   0  0  0  0  0  0  0  0  0  0  0  0
    2.1470   -2.3313   -0.8882 C   0  0  0  0  0  0  0  0  0  0  0  0
    2.5967    1.5036   -0.3196 C   0  0  1  0  0  0  0  0  0  0  0  0
    1.9427    2.3828    0.4602 F   0  0  0  0  0  0  0  0  0  0  0  0
    3.8967    1.5543    0.0269 F   0  0  0  0  0  0  0  0  0  0  0  0
    2.5068    1.9545   -1.5886 F   0  0  0  0  0  0  0  0  0  0  0  0
    2.0875   -0.1558    0.8900 H   0  0  0  0  0  0  0  0  0  0  0  0
    3.8083   -0.9422   -0.7826 H   0  0  0  0  0  0  0  0  0  0  0  0
    2.6809   -0.6145   -2.0995 H   0  0  0  0  0  0  0  0  0  0  0  0
    2.2180   -2.6848    0.1537 H   0  0  0  0  0  0  0  0  0  0  0  0
    2.6779   -3.0575   -1.5225 H   0  0  0  0  0  0  0  0  0  0  0  0
    1.0826   -2.3545   -1.1742 H   0  0  0  0  0  0  0  0  0  0  0  0
  1  2  1  0
  2  3  1  0
  2  5  1  0
  2  9  1  0
  3  4  1  0
  3 10  1  0
  3 11  1  0
  4 12  1  0
  4 13  1  0
  4 14  1  0
  5  6  1  1
  5  7  1  0
  5  8  1  0
M  END

