
     RDKit          3D

 35 36  0  0  0  0  0  0  0  0999 V2000
    2.3939   -2.6831    2.3028 C   0  0  0  0  0  0  0  0  0  0  0  0
    3.4510   -2.0194    1.4964 C   0  0  0  0  0  0  0  0  0  0  0  0
    3.5695   -1.9718    0.2101 N   0  0  0  0  0  0  0  0  0  0  0  0
    4.7273   -1.2302   -0.0129 C   0  0  0  0  0  0  0  0  0  0  0  0
    5.3731   -0.8292   -1.1876 C   0  0  0  0  0  0  0  0  0  0  0  0
    6.5367   -0.0696   -1.0567 C   0  0  0  0  0  0  0  0  0  0  0  0
    7.0707    0.3001    0.2014 C   0  0  0  0  0  0  0  0  0  0  0  0
    8.3579    1.0918    0.2806 C   0  0  0  0  0  0  0  0  0  0  0  0
    9.6151    0.2073    0.2678 C   0  0  0  0  0  0  0  0  0  0  0  0
   10.8858    1.0204    0.5263 C   0  0  0  0  0  0  0  0  0  0  0  0
   10.9086    1.9764    1.2722 O   0  0  0  0  0  0  0  0  0  0  0  0
   11.9872    0.5454   -0.1527 N   0  0  0  0  0  0  0  0  0  0  0  0
   13.2515    1.0833    0.0134 N   0  0  0  0  0  0  0  0  0  0  0  0
   14.1412    0.2042    0.7499 C   0  0  0  0  0  0  0  0  0  0  0  0
   13.7972    1.5994   -1.2273 C   0  0  0  0  0  0  0  0  0  0  0  0
    6.4187   -0.1003    1.3794 C   0  0  0  0  0  0  0  0  0  0  0  0
    5.2635   -0.8571    1.2302 C   0  0  0  0  0  0  0  0  0  0  0  0
    4.4396   -1.3661    2.1948 O   0  0  0  0  0  0  0  0  0  0  0  0
    1.6765   -3.1661    1.6285 H   0  0  0  0  0  0  0  0  0  0  0  0
    1.8658   -1.9497    2.9335 H   0  0  0  0  0  0  0  0  0  0  0  0
    2.8315   -3.4395    2.9741 H   0  0  0  0  0  0  0  0  0  0  0  0
    4.9718   -1.0995   -2.1662 H   0  0  0  0  0  0  0  0  0  0  0  0
    7.0566    0.2633   -1.9597 H   0  0  0  0  0  0  0  0  0  0  0  0
    8.3861    1.6967    1.1987 H   0  0  0  0  0  0  0  0  0  0  0  0
    8.4117    1.8028   -0.5605 H   0  0  0  0  0  0  0  0  0  0  0  0
    9.6859   -0.3596   -0.6758 H   0  0  0  0  0  0  0  0  0  0  0  0
    9.5406   -0.5436    1.0748 H   0  0  0  0  0  0  0  0  0  0  0  0
   11.8879   -0.2947   -0.7285 H   0  0  0  0  0  0  0  0  0  0  0  0
   13.6893   -0.0480    1.7200 H   0  0  0  0  0  0  0  0  0  0  0  0
   15.0932    0.7228    0.9404 H   0  0  0  0  0  0  0  0  0  0  0  0
   14.3700   -0.7433    0.2088 H   0  0  0  0  0  0  0  0  0  0  0  0
   13.1001    2.3311   -1.6601 H   0  0  0  0  0  0  0  0  0  0  0  0
   13.9916    0.8060   -1.9865 H   0  0  0  0  0  0  0  0  0  0  0  0
   14.7506    2.1105   -1.0234 H   0  0  0  0  0  0  0  0  0  0  0  0
    6.7984    0.1764    2.3652 H   0  0  0  0  0  0  0  0  0  0  0  0
  1  2  1  0
  1 19  1  0
  1 20  1  0
  1 21  1  0
  2  3  2  0
  2 18  1  0
  3  4  1  0
  4  5  2  0
  4 17  1  0
  5  6  1  0
  5 22  1  0
  6  7  2  0
  6 23  1  0
  7  8  1  0
  7 16  1  0
  8  9  1  0
  8 24  1  0
  8 25  1  0
  9 10  1  0
  9 26  1  0
  9 27  1  0
 10 11  2  0
 10 12  1  0
 12 13  1  0
 12 28  1  0
 13 14  1  0
 13 15  1  0
 14 29  1  0
 14 30  1  0
 14 31  1  0
 15 32  1  0
 15 33  1  0
 15 34  1  0
 16 17  2  0
 16 35  1  0
 17 18  1  0
M  END

