
     RDKit          3D

 36 37  0  0  0  0  0  0  0  0999 V2000
    3.3831    1.3745   -0.3065 C   0  0  0  0  0  0  0  0  0  0  0  0
    2.5324    0.1426    0.0409 C   0  0  1  0  0  0  0  0  0  0  0  0
    1.4082    0.5504    1.0187 C   0  0  0  0  0  0  0  0  0  0  0  0
    1.9055   -0.4322   -1.2486 C   0  0  0  0  0  0  0  0  0  0  0  0
    3.3776   -0.9427    0.6962 C   0  0  0  0  0  0  0  0  0  0  0  0
    4.7225   -0.9007    0.9762 C   0  0  0  0  0  0  0  0  0  0  0  0
    5.2435   -2.3691    1.7333 S   0  0  0  0  0  0  0  0  0  0  0  0
    3.5999   -2.9505    1.6200 C   0  0  0  0  0  0  0  0  0  0  0  0
    3.2113   -4.3232    2.0905 C   0  0  0  0  0  0  0  0  0  0  0  0
    4.2838   -4.8603    2.8293 O   0  0  0  0  0  0  0  0  0  0  0  0
    4.2069   -6.1202    3.3233 C   0  0  0  0  0  0  0  0  0  0  0  0
    3.0741   -6.9337    3.2046 C   0  0  0  0  0  0  0  0  0  0  0  0
    3.0527   -8.2366    3.7452 C   0  0  0  0  0  0  0  0  0  0  0  0
    1.9396   -9.0456    3.5745 N   0  0  0  0  0  0  0  0  0  0  0  0
    4.1968   -8.7092    4.4128 C   0  0  0  0  0  0  0  0  0  0  0  0
    5.3251   -7.8975    4.5311 C   0  0  0  0  0  0  0  0  0  0  0  0
    5.3455   -6.6115    3.9966 C   0  0  0  0  0  0  0  0  0  0  0  0
    6.7650   -5.6052    4.1530 Cl  0  0  0  0  0  0  0  0  0  0  0  0
    2.7657   -2.1199    1.0739 N   0  0  0  0  0  0  0  0  0  0  0  0
    2.7563    2.1468   -0.7799 H   0  0  0  0  0  0  0  0  0  0  0  0
    4.1913    1.1243   -1.0124 H   0  0  0  0  0  0  0  0  0  0  0  0
    3.8378    1.8212    0.5922 H   0  0  0  0  0  0  0  0  0  0  0  0
    0.7451    1.2987    0.5543 H   0  0  0  0  0  0  0  0  0  0  0  0
    1.8247    0.9878    1.9404 H   0  0  0  0  0  0  0  0  0  0  0  0
    0.8035   -0.3238    1.3013 H   0  0  0  0  0  0  0  0  0  0  0  0
    1.2437    0.3122   -1.7213 H   0  0  0  0  0  0  0  0  0  0  0  0
    1.3141   -1.3322   -1.0248 H   0  0  0  0  0  0  0  0  0  0  0  0
    2.6839   -0.7094   -1.9776 H   0  0  0  0  0  0  0  0  0  0  0  0
    5.4282   -0.0946    0.7926 H   0  0  0  0  0  0  0  0  0  0  0  0
    2.9762   -4.9612    1.2163 H   0  0  0  0  0  0  0  0  0  0  0  0
    2.2921   -4.2454    2.7005 H   0  0  0  0  0  0  0  0  0  0  0  0
    2.1885   -6.5665    2.6850 H   0  0  0  0  0  0  0  0  0  0  0  0
    1.0589   -8.5808    3.3885 H   0  0  0  0  0  0  0  0  0  0  0  0
    1.8499   -9.8308    4.2083 H   0  0  0  0  0  0  0  0  0  0  0  0
    4.2047   -9.7161    4.8373 H   0  0  0  0  0  0  0  0  0  0  0  0
    6.2131   -8.2633    5.0499 H   0  0  0  0  0  0  0  0  0  0  0  0
  2  1  1  6
  1 20  1  0
  1 21  1  0
  1 22  1  0
  2  3  1  0
  2  4  1  0
  2  5  1  0
  3 23  1  0
  3 24  1  0
  3 25  1  0
  4 26  1  0
  4 27  1  0
  4 28  1  0
  5  6  2  0
  5 19  1  0
  6  7  1  0
  6 29  1  0
  7  8  1  0
  8  9  1  0
  8 19  2  0
  9 10  1  0
  9 30  1  0
  9 31  1  0
 10 11  1  0
 11 12  2  0
 11 17  1  0
 12 13  1  0
 12 32  1  0
 13 14  1  0
 13 15  2  0
 14 33  1  0
 14 34  1  0
 15 16  1  0
 15 35  1  0
 16 17  2  0
 16 36  1  0
 17 18  1  0
M  END

