
     RDKit          3D

 75 81  0  0  0  0  0  0  0  0999 V2000
    0.8776    0.1389    0.1570 C   0  0  0  0  0  0  0  0  0  0  0  0
    2.2358    0.1336   -0.5120 C   0  0  0  0  0  0  0  0  0  0  0  0
    2.8932    1.3499   -0.6081 C   0  0  0  0  0  0  0  0  0  0  0  0
    4.2063    1.5289   -1.1387 C   0  0  0  0  0  0  0  0  0  0  0  0
    4.8339    2.8187   -1.2363 C   0  0  0  0  0  0  0  0  0  0  0  0
    4.1392    4.0447   -0.9655 C   0  0  0  0  0  0  0  0  0  0  0  0
    4.7359    5.2783   -1.0505 C   0  0  0  0  0  0  0  0  0  0  0  0
    6.1151    5.4372   -1.4375 C   0  0  0  0  0  0  0  0  0  0  0  0
    6.7329    6.7013   -1.5341 C   0  0  0  0  0  0  0  0  0  0  0  0
    6.4258    7.8438   -0.7925 N   0  0  0  0  0  0  0  0  0  0  0  0
    5.6399    7.8802    0.4252 C   0  0  0  0  0  0  0  0  0  0  0  0
    7.2465    8.8925   -1.1859 C   0  0  0  0  0  0  0  0  0  0  0  0
    7.3250   10.2173   -0.7565 C   0  0  0  0  0  0  0  0  0  0  0  0
    8.2986   11.0376   -1.3542 C   0  0  0  0  0  0  0  0  0  0  0  0
    9.1523   10.5450   -2.3460 C   0  0  0  0  0  0  0  0  0  0  0  0
    9.0756    9.2084   -2.7770 C   0  0  0  0  0  0  0  0  0  0  0  0
    8.1118    8.3939   -2.1826 C   0  0  0  0  0  0  0  0  0  0  0  0
    7.7736    7.0634   -2.3917 N   0  0  0  0  0  0  0  0  0  0  0  0
    8.2162    6.3164   -3.5526 C   0  0  0  0  0  0  0  0  0  0  0  0
    6.8156    4.2096   -1.7193 C   0  0  0  0  0  0  0  0  0  0  0  0
    6.2079    2.9827   -1.6159 C   0  0  0  0  0  0  0  0  0  0  0  0
    4.8476    0.3227   -1.5539 C   0  0  0  0  0  0  0  0  0  0  0  0
    4.2250   -0.8982   -1.4540 C   0  0  0  0  0  0  0  0  0  0  0  0
    2.8929   -1.0750   -0.9574 C   0  0  0  0  0  0  0  0  0  0  0  0
    2.3282   -2.4046   -0.9233 C   0  0  0  0  0  0  0  0  0  0  0  0
    3.1705   -3.5668   -0.8569 C   0  0  0  0  0  0  0  0  0  0  0  0
    2.6854   -4.8516   -0.8454 C   0  0  0  0  0  0  0  0  0  0  0  0
    1.2771   -5.1371   -0.9363 C   0  0  0  0  0  0  0  0  0  0  0  0
    0.7697   -6.4550   -0.9398 C   0  0  0  0  0  0  0  0  0  0  0  0
    1.3238   -7.5684   -0.3061 N   0  0  0  0  0  0  0  0  0  0  0  0
    2.3478   -7.5398    0.7195 C   0  0  0  0  0  0  0  0  0  0  0  0
    0.5379   -8.6866   -0.5510 C   0  0  0  0  0  0  0  0  0  0  0  0
    0.6687  -10.0161   -0.1494 C   0  0  0  0  0  0  0  0  0  0  0  0
   -0.3289  -10.9194   -0.5577 C   0  0  0  0  0  0  0  0  0  0  0  0
   -1.4085  -10.5018   -1.3422 C   0  0  0  0  0  0  0  0  0  0  0  0
   -1.5422   -9.1611   -1.7453 C   0  0  0  0  0  0  0  0  0  0  0  0
   -0.5543   -8.2642   -1.3382 C   0  0  0  0  0  0  0  0  0  0  0  0
   -0.3868   -6.9068   -1.5775 N   0  0  0  0  0  0  0  0  0  0  0  0
   -1.1252   -6.1941   -2.6012 C   0  0  0  0  0  0  0  0  0  0  0  0
    0.4273   -3.9795   -1.0254 C   0  0  0  0  0  0  0  0  0  0  0  0
    0.9268   -2.6980   -1.0021 C   0  0  0  0  0  0  0  0  0  0  0  0
    0.7380    1.0705    0.7256 H   0  0  0  0  0  0  0  0  0  0  0  0
    0.7569   -0.7047    0.8540 H   0  0  0  0  0  0  0  0  0  0  0  0
    0.0460    0.0800   -0.5666 H   0  0  0  0  0  0  0  0  0  0  0  0
    2.3704    2.2204   -0.2073 H   0  0  0  0  0  0  0  0  0  0  0  0
    3.0774    4.0140   -0.7171 H   0  0  0  0  0  0  0  0  0  0  0  0
    4.1176    6.1628   -0.8879 H   0  0  0  0  0  0  0  0  0  0  0  0
    5.5804    6.8731    0.8563 H   0  0  0  0  0  0  0  0  0  0  0  0
    4.6155    8.2499    0.2514 H   0  0  0  0  0  0  0  0  0  0  0  0
    6.1322    8.5458    1.1506 H   0  0  0  0  0  0  0  0  0  0  0  0
    6.6504   10.6117    0.0050 H   0  0  0  0  0  0  0  0  0  0  0  0
    8.3836   12.0797   -1.0378 H   0  0  0  0  0  0  0  0  0  0  0  0
    9.8973   11.2066   -2.7941 H   0  0  0  0  0  0  0  0  0  0  0  0
    9.7561    8.8253   -3.5391 H   0  0  0  0  0  0  0  0  0  0  0  0
    8.3989    7.0167   -4.3817 H   0  0  0  0  0  0  0  0  0  0  0  0
    7.4346    5.6086   -3.8561 H   0  0  0  0  0  0  0  0  0  0  0  0
    9.1448    5.7538   -3.3596 H   0  0  0  0  0  0  0  0  0  0  0  0
    7.8810    4.2395   -1.9535 H   0  0  0  0  0  0  0  0  0  0  0  0
    6.8211    2.0989   -1.7976 H   0  0  0  0  0  0  0  0  0  0  0  0
    5.8440    0.3557   -1.9974 H   0  0  0  0  0  0  0  0  0  0  0  0
    4.7590   -1.7706   -1.8346 H   0  0  0  0  0  0  0  0  0  0  0  0
    4.2511   -3.4335   -0.7852 H   0  0  0  0  0  0  0  0  0  0  0  0
    3.4031   -5.6732   -0.8149 H   0  0  0  0  0  0  0  0  0  0  0  0
    2.3987   -6.5374    1.1629 H   0  0  0  0  0  0  0  0  0  0  0  0
    3.3437   -7.8008    0.3240 H   0  0  0  0  0  0  0  0  0  0  0  0
    2.0859   -8.2610    1.5084 H   0  0  0  0  0  0  0  0  0  0  0  0
    1.5177  -10.3513    0.4485 H   0  0  0  0  0  0  0  0  0  0  0  0
   -0.2532  -11.9671   -0.2578 H   0  0  0  0  0  0  0  0  0  0  0  0
   -2.1668  -11.2270   -1.6464 H   0  0  0  0  0  0  0  0  0  0  0  0
   -2.3958   -8.8381   -2.3433 H   0  0  0  0  0  0  0  0  0  0  0  0
   -1.4169   -6.9021   -3.3916 H   0  0  0  0  0  0  0  0  0  0  0  0
   -0.4884   -5.4174   -3.0430 H   0  0  0  0  0  0  0  0  0  0  0  0
   -2.0375   -5.7180   -2.2045 H   0  0  0  0  0  0  0  0  0  0  0  0
   -0.6559   -4.1065   -1.0646 H   0  0  0  0  0  0  0  0  0  0  0  0
    0.2116   -1.8829   -1.0857 H   0  0  0  0  0  0  0  0  0  0  0  0
  1  2  1  0
  1 42  1  0
  1 43  1  0
  1 44  1  0
  2  3  2  0
  2 24  1  0
  3  4  1  0
  3 45  1  0
  4  5  2  0
  4 22  1  0
  5  6  1  0
  5 21  1  0
  6  7  2  0
  6 46  1  0
  7  8  1  0
  7 47  1  0
  8  9  2  0
  8 20  1  0
  9 10  1  0
  9 18  1  0
 10 11  1  0
 10 12  1  0
 11 48  1  0
 11 49  1  0
 11 50  1  0
 12 13  1  0
 12 17  2  0
 13 14  2  0
 13 51  1  0
 14 15  1  0
 14 52  1  0
 15 16  2  0
 15 53  1  0
 16 17  1  0
 16 54  1  0
 17 18  1  0
 18 19  1  0
 19 55  1  0
 19 56  1  0
 19 57  1  0
 20 21  2  0
 20 58  1  0
 21 59  1  0
 22 23  2  0
 22 60  1  0
 23 24  1  0
 23 61  1  0
 24 25  2  0
 25 26  1  0
 25 41  1  0
 26 27  2  0
 26 62  1  0
 27 28  1  0
 27 63  1  0
 28 29  2  0
 28 40  1  0
 29 30  1  0
 29 38  1  0
 30 31  1  0
 30 32  1  0
 31 64  1  0
 31 65  1  0
 31 66  1  0
 32 33  1  0
 32 37  2  0
 33 34  2  0
 33 67  1  0
 34 35  1  0
 34 68  1  0
 35 36  2  0
 35 69  1  0
 36 37  1  0
 36 70  1  0
 37 38  1  0
 38 39  1  0
 39 71  1  0
 39 72  1  0
 39 73  1  0
 40 41  2  0
 40 74  1  0
 41 75  1  0
M  END

