
     RDKit          3D

 44 46  0  0  0  0  0  0  0  0999 V2000
    3.0350    0.3468   -5.1417 C   0  0  0  0  0  0  0  0  0  0  0  0
    2.7086   -0.9070   -4.5883 O   0  0  0  0  0  0  0  0  0  0  0  0
    3.1964   -1.2359   -3.3637 C   0  0  0  0  0  0  0  0  0  0  0  0
    4.0180   -0.4170   -2.5801 C   0  0  0  0  0  0  0  0  0  0  0  0
    4.4722   -0.8682   -1.3331 C   0  0  0  0  0  0  0  0  0  0  0  0
    4.1109   -2.1249   -0.8429 C   0  0  0  0  0  0  0  0  0  0  0  0
    4.5563   -2.6312    0.3321 O   0  0  0  0  0  0  0  0  0  0  0  0
    5.4178   -1.8731    1.1534 C   0  0  0  0  0  0  0  0  0  0  0  0
    3.2541   -2.9623   -1.6125 C   0  0  0  0  0  0  0  0  0  0  0  0
    2.7761   -4.2820   -1.2153 C   0  0  0  0  0  0  0  0  0  0  0  0
    2.6589   -4.9574   -0.0443 C   0  0  0  0  0  0  0  0  0  0  0  0
    3.0342   -4.5107    1.6295 S   0  0  0  0  0  0  0  0  0  0  0  0
    2.3277   -6.0420    2.2556 C   0  0  0  0  0  0  0  0  0  0  0  0
    2.2668   -6.3426    3.4215 O   0  0  0  0  0  0  0  0  0  0  0  0
    1.8845   -6.8306    1.2002 N   0  0  0  0  0  0  0  0  0  0  0  0
    1.2798   -8.1433    1.4394 C   0  0  0  0  0  0  0  0  0  0  0  0
   -0.2229   -8.0801    1.6375 C   0  0  0  0  0  0  0  0  0  0  0  0
   -1.0879   -8.1793    0.5351 C   0  0  0  0  0  0  0  0  0  0  0  0
   -2.4700   -8.1122    0.7081 C   0  0  0  0  0  0  0  0  0  0  0  0
   -2.9761   -7.9421    1.9973 C   0  0  0  0  0  0  0  0  0  0  0  0
   -4.4411   -7.8743    2.1894 N   0  0  0  0  0  0  0  0  0  0  0  0
   -5.1455   -7.9707    1.1973 O   0  0  0  0  0  0  0  0  0  0  0  0
   -4.8550   -7.7261    3.3279 O   0  0  0  0  0  0  0  0  0  0  0  0
   -2.1422   -7.8336    3.1108 C   0  0  0  0  0  0  0  0  0  0  0  0
   -0.7622   -7.9023    2.9224 C   0  0  0  0  0  0  0  0  0  0  0  0
    2.0212   -6.3121   -0.0866 C   0  0  0  0  0  0  0  0  0  0  0  0
    1.6555   -6.9035   -1.0826 O   0  0  0  0  0  0  0  0  0  0  0  0
    2.8373   -2.4972   -2.8718 C   0  0  0  0  0  0  0  0  0  0  0  0
    2.5392    0.3965   -6.1204 H   0  0  0  0  0  0  0  0  0  0  0  0
    4.1247    0.4624   -5.2880 H   0  0  0  0  0  0  0  0  0  0  0  0
    2.6709    1.1816   -4.5151 H   0  0  0  0  0  0  0  0  0  0  0  0
    4.3245    0.5711   -2.9235 H   0  0  0  0  0  0  0  0  0  0  0  0
    5.1253   -0.2185   -0.7513 H   0  0  0  0  0  0  0  0  0  0  0  0
    5.6246   -2.4918    2.0364 H   0  0  0  0  0  0  0  0  0  0  0  0
    4.9470   -0.9281    1.4775 H   0  0  0  0  0  0  0  0  0  0  0  0
    6.3685   -1.6451    0.6401 H   0  0  0  0  0  0  0  0  0  0  0  0
    2.3627   -4.8634   -2.0476 H   0  0  0  0  0  0  0  0  0  0  0  0
    1.7660   -8.5617    2.3305 H   0  0  0  0  0  0  0  0  0  0  0  0
    1.5241   -8.7634    0.5669 H   0  0  0  0  0  0  0  0  0  0  0  0
   -0.6684   -8.2988   -0.4664 H   0  0  0  0  0  0  0  0  0  0  0  0
   -3.1604   -8.1895   -0.1312 H   0  0  0  0  0  0  0  0  0  0  0  0
   -2.5832   -7.6990    4.0980 H   0  0  0  0  0  0  0  0  0  0  0  0
   -0.0902   -7.8063    3.7783 H   0  0  0  0  0  0  0  0  0  0  0  0
    2.1963   -3.1238   -3.4951 H   0  0  0  0  0  0  0  0  0  0  0  0
  1  2  1  0
  1 29  1  0
  1 30  1  0
  1 31  1  0
  2  3  1  0
  3  4  2  0
  3 28  1  0
  4  5  1  0
  4 32  1  0
  5  6  2  0
  5 33  1  0
  6  7  1  0
  6  9  1  0
  7  8  1  0
  8 34  1  0
  8 35  1  0
  8 36  1  0
  9 10  1  0
  9 28  2  0
 10 11  2  0
 10 37  1  0
 11 12  1  0
 11 26  1  0
 12 13  2  0
 13 14  1  0
 13 15  1  0
 15 16  1  0
 15 26  1  0
 16 17  1  0
 16 38  1  0
 16 39  1  0
 17 18  2  0
 17 25  1  0
 18 19  1  0
 18 40  1  0
 19 20  2  0
 19 41  1  0
 20 21  1  0
 20 24  1  0
 21 22  2  0
 21 23  1  0
 24 25  2  0
 24 42  1  0
 25 43  1  0
 26 27  2  0
 28 44  1  0
M  CHG  4  12   1  14  -1  21   1  23  -1
M  END

