
     RDKit          3D

 41 43  0  0  0  0  0  0  0  0999 V2000
    2.8358    0.4776    1.6611 C   0  0  0  0  0  0  0  0  0  0  0  0
    2.9435    0.0644    0.3172 O   0  0  0  0  0  0  0  0  0  0  0  0
    3.2105    0.9837   -0.6415 C   0  0  0  0  0  0  0  0  0  0  0  0
    3.3951    2.3540   -0.4067 C   0  0  0  0  0  0  0  0  0  0  0  0
    3.6665    3.2076   -1.4792 C   0  0  0  0  0  0  0  0  0  0  0  0
    3.7634    2.7430   -2.8033 C   0  0  0  0  0  0  0  0  0  0  0  0
    4.0503    3.6947   -3.8772 C   0  0  0  0  0  0  0  0  0  0  0  0
    4.1781    3.4308   -5.1982 C   0  0  0  0  0  0  0  0  0  0  0  0
    4.4652    4.3937   -6.2590 C   0  0  0  0  0  0  0  0  0  0  0  0
    4.6599    5.7775   -6.0642 C   0  0  0  0  0  0  0  0  0  0  0  0
    4.9279    6.5994   -7.1492 C   0  0  0  0  0  0  0  0  0  0  0  0
    5.0018    6.0349   -8.4373 C   0  0  0  0  0  0  0  0  0  0  0  0
    5.2869    6.8818   -9.6264 C   0  0  0  0  0  0  0  0  0  0  0  0
    5.3599    6.3160  -10.9125 C   0  0  0  0  0  0  0  0  0  0  0  0
    5.6289    7.1452  -11.9959 C   0  0  0  0  0  0  0  0  0  0  0  0
    5.8223    8.5215  -11.7962 C   0  0  0  0  0  0  0  0  0  0  0  0
    6.1159    9.4608  -12.9362 C   0  0  0  0  0  0  0  0  0  0  0  0
    5.7267    8.9761  -10.4708 C   0  0  0  0  0  0  0  0  0  0  0  0
    5.4701    8.1946   -9.4248 N   0  0  0  0  0  0  0  0  0  0  0  0
    4.8188    4.7208   -8.6377 N   0  0  0  0  0  0  0  0  0  0  0  0
    4.5631    3.9425   -7.5941 C   0  0  0  0  0  0  0  0  0  0  0  0
    3.5729    1.3563   -3.0129 C   0  0  0  0  0  0  0  0  0  0  0  0
    3.3032    0.4960   -1.9606 C   0  0  0  0  0  0  0  0  0  0  0  0
    2.6191   -0.4240    2.2496 H   0  0  0  0  0  0  0  0  0  0  0  0
    2.0149    1.2035    1.8034 H   0  0  0  0  0  0  0  0  0  0  0  0
    3.7753    0.9278    2.0293 H   0  0  0  0  0  0  0  0  0  0  0  0
    3.3307    2.7669    0.6001 H   0  0  0  0  0  0  0  0  0  0  0  0
    3.8079    4.2736   -1.2796 H   0  0  0  0  0  0  0  0  0  0  0  0
    4.1692    4.7299   -3.5392 H   0  0  0  0  0  0  0  0  0  0  0  0
    4.0604    2.3988   -5.5451 H   0  0  0  0  0  0  0  0  0  0  0  0
    4.6016    6.2101   -5.0626 H   0  0  0  0  0  0  0  0  0  0  0  0
    5.0840    7.6724   -7.0374 H   0  0  0  0  0  0  0  0  0  0  0  0
    5.2038    5.2431  -11.0255 H   0  0  0  0  0  0  0  0  0  0  0  0
    5.6899    6.7248  -13.0047 H   0  0  0  0  0  0  0  0  0  0  0  0
    7.0407    9.1741  -13.4647 H   0  0  0  0  0  0  0  0  0  0  0  0
    6.2377   10.4959  -12.5838 H   0  0  0  0  0  0  0  0  0  0  0  0
    5.3038    9.4527  -13.6826 H   0  0  0  0  0  0  0  0  0  0  0  0
    5.8692   10.0434  -10.2562 H   0  0  0  0  0  0  0  0  0  0  0  0
    4.4207    2.8745   -7.8061 H   0  0  0  0  0  0  0  0  0  0  0  0
    3.6376    0.9433   -4.0217 H   0  0  0  0  0  0  0  0  0  0  0  0
    3.1568   -0.5733   -2.1263 H   0  0  0  0  0  0  0  0  0  0  0  0
  1  2  1  0
  1 24  1  0
  1 25  1  0
  1 26  1  0
  2  3  1  0
  3  4  2  0
  3 23  1  0
  4  5  1  0
  4 27  1  0
  5  6  2  0
  5 28  1  0
  6  7  1  0
  6 22  1  0
  7  8  2  0
  7 29  1  0
  8  9  1  0
  8 30  1  0
  9 10  2  0
  9 21  1  0
 10 11  1  0
 10 31  1  0
 11 12  2  0
 11 32  1  0
 12 13  1  0
 12 20  1  0
 13 14  2  0
 13 19  1  0
 14 15  1  0
 14 33  1  0
 15 16  2  0
 15 34  1  0
 16 17  1  0
 16 18  1  0
 17 35  1  0
 17 36  1  0
 17 37  1  0
 18 19  2  0
 18 38  1  0
 20 21  2  0
 21 39  1  0
 22 23  2  0
 22 40  1  0
 23 41  1  0
M  END

