
     RDKit          3D

 39 40  0  0  0  0  0  0  0  0999 V2000
    3.5636    2.9198    3.2545 C   0  0  0  0  0  0  0  0  0  0  0  0
    2.2652    3.1021    2.5371 C   0  0  0  0  0  0  0  0  0  0  0  0
    1.9520    3.0070    1.1807 C   0  0  0  0  0  0  0  0  0  0  0  0
    2.8640    2.6474    0.0407 C   0  0  0  0  0  0  0  0  0  0  0  0
    4.0504    3.5008   -0.0876 N   0  0  0  0  0  0  0  0  0  0  0  0
    5.0250    2.8961   -0.9866 C   0  0  0  0  0  0  0  0  0  0  0  0
    6.3781    3.6092   -1.0942 C   0  0  0  0  0  0  0  0  0  0  0  0
    6.3475    4.9420   -1.8580 C   0  0  0  0  0  0  0  0  0  0  0  0
    5.9067    6.1845   -1.0497 C   0  0  2  0  0  0  0  0  0  0  0  0
    7.0975    6.8729   -0.3683 C   0  0  0  0  0  0  0  0  0  0  0  0
    4.8022    5.8978   -0.0100 C   0  0  0  0  0  0  0  0  0  0  0  0
    3.7088    4.8908   -0.3933 C   0  0  0  0  0  0  0  0  0  0  0  0
    0.5618    3.2794    1.1286 C   0  0  0  0  0  0  0  0  0  0  0  0
    0.0536    3.5183    2.3324 N   0  0  0  0  0  0  0  0  0  0  0  0
    1.0960    3.4077    3.1759 N   0  0  0  0  0  0  0  0  0  0  0  0
    0.8995    3.6236    4.5932 C   0  0  0  0  0  0  0  0  0  0  0  0
    4.3783    2.8820    2.5194 H   0  0  0  0  0  0  0  0  0  0  0  0
    3.5824    1.9906    3.8515 H   0  0  0  0  0  0  0  0  0  0  0  0
    3.7729    3.7546    3.9444 H   0  0  0  0  0  0  0  0  0  0  0  0
    2.2648    2.6341   -0.8991 H   0  0  0  0  0  0  0  0  0  0  0  0
    3.2282    1.6136    0.1727 H   0  0  0  0  0  0  0  0  0  0  0  0
    4.6086    2.7925   -2.0192 H   0  0  0  0  0  0  0  0  0  0  0  0
    5.2017    1.8676   -0.6284 H   0  0  0  0  0  0  0  0  0  0  0  0
    7.0512    2.9178   -1.6291 H   0  0  0  0  0  0  0  0  0  0  0  0
    6.8119    3.7368   -0.0873 H   0  0  0  0  0  0  0  0  0  0  0  0
    5.6817    4.8149   -2.7293 H   0  0  0  0  0  0  0  0  0  0  0  0
    7.3458    5.1433   -2.2826 H   0  0  0  0  0  0  0  0  0  0  0  0
    5.4925    6.9022   -1.7813 H   0  0  0  0  0  0  0  0  0  0  0  0
    7.6068    6.1873    0.3308 H   0  0  0  0  0  0  0  0  0  0  0  0
    6.7735    7.7521    0.2129 H   0  0  0  0  0  0  0  0  0  0  0  0
    7.8430    7.2140   -1.1049 H   0  0  0  0  0  0  0  0  0  0  0  0
    4.3214    6.8588    0.2416 H   0  0  0  0  0  0  0  0  0  0  0  0
    5.2574    5.5361    0.9279 H   0  0  0  0  0  0  0  0  0  0  0  0
    3.4186    5.0147   -1.4633 H   0  0  0  0  0  0  0  0  0  0  0  0
    2.8090    5.1280    0.1922 H   0  0  0  0  0  0  0  0  0  0  0  0
   -0.0834    3.3052    0.2492 H   0  0  0  0  0  0  0  0  0  0  0  0
   -0.1722    3.7931    4.7504 H   0  0  0  0  0  0  0  0  0  0  0  0
    1.4596    4.5046    4.9480 H   0  0  0  0  0  0  0  0  0  0  0  0
    1.2179    2.7461    5.1783 H   0  0  0  0  0  0  0  0  0  0  0  0
  1  2  1  0
  1 17  1  0
  1 18  1  0
  1 19  1  0
  2  3  2  0
  2 15  1  0
  3  4  1  0
  3 13  1  0
  4  5  1  0
  4 20  1  0
  4 21  1  0
  5  6  1  0
  5 12  1  0
  6  7  1  0
  6 22  1  0
  6 23  1  0
  7  8  1  0
  7 24  1  0
  7 25  1  0
  8  9  1  0
  8 26  1  0
  8 27  1  0
  9 10  1  0
  9 11  1  0
  9 28  1  6
 10 29  1  0
 10 30  1  0
 10 31  1  0
 11 12  1  0
 11 32  1  0
 11 33  1  0
 12 34  1  0
 12 35  1  0
 13 14  2  0
 13 36  1  0
 14 15  1  0
 15 16  1  0
 16 37  1  0
 16 38  1  0
 16 39  1  0
M  END

