
     RDKit          3D

 53 57  0  0  0  0  0  0  0  0999 V2000
    1.1818    5.9979    2.1738 C   0  0  0  0  0  0  0  0  0  0  0  0
    2.4393    5.9961    1.5498 O   0  0  0  0  0  0  0  0  0  0  0  0
    2.4612    5.5992    0.1817 C   0  0  1  0  0  0  0  0  0  0  0  0
    3.8776    5.7898   -0.3109 C   0  0  0  0  0  0  0  0  0  0  0  0
    4.3399    6.9899   -1.0305 C   0  0  0  0  0  0  0  0  0  0  0  0
    4.1101    8.3523   -0.7744 C   0  0  0  0  0  0  0  0  0  0  0  0
    3.2616    9.0244    0.2331 C   0  0  0  0  0  0  0  0  0  0  0  0
    3.5944    9.9837    0.8965 O   0  0  0  0  0  0  0  0  0  0  0  0
    2.0194    8.5098    0.3147 O   0  0  0  0  0  0  0  0  0  0  0  0
    4.9324    9.1324   -1.5839 N   0  0  0  0  0  0  0  0  0  0  0  0
    4.9612   10.5824   -1.6590 C   0  0  0  0  0  0  0  0  0  0  0  0
    3.9868   11.1860   -2.6571 C   0  0  0  0  0  0  0  0  0  0  0  0
    3.0776   10.4404   -3.4172 C   0  0  0  0  0  0  0  0  0  0  0  0
    2.1946   11.0527   -4.3124 C   0  0  0  0  0  0  0  0  0  0  0  0
    2.2270   12.4377   -4.4462 C   0  0  0  0  0  0  0  0  0  0  0  0
    1.3875   13.0385   -5.2994 F   0  0  0  0  0  0  0  0  0  0  0  0
    3.1147   13.2237   -3.7130 C   0  0  0  0  0  0  0  0  0  0  0  0
    3.9748   12.5754   -2.8338 C   0  0  0  0  0  0  0  0  0  0  0  0
    4.8409   13.3137   -2.1183 F   0  0  0  0  0  0  0  0  0  0  0  0
    5.6496    8.3016   -2.4178 C   0  0  0  0  0  0  0  0  0  0  0  0
    6.5480    8.6692   -3.4475 C   0  0  0  0  0  0  0  0  0  0  0  0
    7.1382    7.6694   -4.2045 C   0  0  0  0  0  0  0  0  0  0  0  0
    6.7914    6.3396   -3.9165 C   0  0  0  0  0  0  0  0  0  0  0  0
    7.2475    5.2566   -4.6085 O   0  0  0  0  0  0  0  0  0  0  0  0
    6.6484    4.1658   -4.0599 C   0  0  0  0  0  0  0  0  0  0  0  0
    5.8218    4.4996   -3.0290 C   0  0  0  0  0  0  0  0  0  0  0  0
    5.9001    5.9362   -2.9050 C   0  0  0  0  0  0  0  0  0  0  0  0
    5.3096    6.9574   -2.1028 C   0  0  0  0  0  0  0  0  0  0  0  0
    4.7462    4.7726   -0.0155 C   0  0  0  0  0  0  0  0  0  0  0  0
    4.2874    3.4946    0.4456 C   0  0  0  0  0  0  0  0  0  0  0  0
    2.9508    3.2262    0.3574 C   0  0  0  0  0  0  0  0  0  0  0  0
    2.0609    4.2080    0.0097 N   0  0  0  0  0  0  0  0  0  0  0  0
    0.7129    3.8850   -0.4213 C   0  0  0  0  0  0  0  0  0  0  0  0
    1.2957    6.4932    3.1501 H   0  0  0  0  0  0  0  0  0  0  0  0
    0.7970    4.9763    2.3567 H   0  0  0  0  0  0  0  0  0  0  0  0
    0.4217    6.5511    1.5844 H   0  0  0  0  0  0  0  0  0  0  0  0
    1.7433    6.2162   -0.3834 H   0  0  0  0  0  0  0  0  0  0  0  0
    1.5835    8.9745    1.0501 H   0  0  0  0  0  0  0  0  0  0  0  0
    5.9882   10.8870   -1.9126 H   0  0  0  0  0  0  0  0  0  0  0  0
    4.7664   10.9817   -0.6552 H   0  0  0  0  0  0  0  0  0  0  0  0
    3.0591    9.3544   -3.3075 H   0  0  0  0  0  0  0  0  0  0  0  0
    1.4870   10.4710   -4.9053 H   0  0  0  0  0  0  0  0  0  0  0  0
    3.1362   14.3084   -3.8219 H   0  0  0  0  0  0  0  0  0  0  0  0
    6.7676    9.7170   -3.6554 H   0  0  0  0  0  0  0  0  0  0  0  0
    7.8362    7.8970   -5.0117 H   0  0  0  0  0  0  0  0  0  0  0  0
    6.9070    3.2098   -4.5092 H   0  0  0  0  0  0  0  0  0  0  0  0
    5.2291    3.8094   -2.4367 H   0  0  0  0  0  0  0  0  0  0  0  0
    5.8136    4.9049   -0.2070 H   0  0  0  0  0  0  0  0  0  0  0  0
    4.9878    2.7152    0.7459 H   0  0  0  0  0  0  0  0  0  0  0  0
    2.5380    2.2253    0.5123 H   0  0  0  0  0  0  0  0  0  0  0  0
    0.6733    2.8438   -0.7730 H   0  0  0  0  0  0  0  0  0  0  0  0
    0.4185    4.5303   -1.2645 H   0  0  0  0  0  0  0  0  0  0  0  0
   -0.0402    4.0093    0.3783 H   0  0  0  0  0  0  0  0  0  0  0  0
  1  2  1  0
  1 34  1  0
  1 35  1  0
  1 36  1  0
  2  3  1  0
  3  4  1  0
  3 32  1  0
  3 37  1  6
  4  5  1  0
  4 29  2  0
  5  6  2  0
  5 28  1  0
  6  7  1  0
  6 10  1  0
  7  8  2  0
  7  9  1  0
  9 38  1  0
 10 11  1  0
 10 20  1  0
 11 12  1  0
 11 39  1  0
 11 40  1  0
 12 13  2  0
 12 18  1  0
 13 14  1  0
 13 41  1  0
 14 15  2  0
 14 42  1  0
 15 16  1  0
 15 17  1  0
 17 18  2  0
 17 43  1  0
 18 19  1  0
 20 21  1  0
 20 28  2  0
 21 22  2  0
 21 44  1  0
 22 23  1  0
 22 45  1  0
 23 24  1  0
 23 27  2  0
 24 25  1  0
 25 26  2  0
 25 46  1  0
 26 27  1  0
 26 47  1  0
 27 28  1  0
 29 30  1  0
 29 48  1  0
 30 31  2  0
 30 49  1  0
 31 32  1  0
 31 50  1  0
 32 33  1  0
 33 51  1  0
 33 52  1  0
 33 53  1  0
M  END

