
     RDKit          3D

 39 40  0  0  0  0  0  0  0  0999 V2000
    0.6553    2.2365   -2.5596 C   0  0  0  0  0  0  0  0  0  0  0  0
    1.2175    1.0671   -2.0054 O   0  0  0  0  0  0  0  0  0  0  0  0
    2.2831    1.1720   -1.1577 C   0  0  0  0  0  0  0  0  0  0  0  0
    2.8864    2.3724   -0.7788 C   0  0  0  0  0  0  0  0  0  0  0  0
    3.9782    2.3579    0.1004 C   0  0  0  0  0  0  0  0  0  0  0  0
    4.4613    1.1490    0.5958 C   0  0  0  0  0  0  0  0  0  0  0  0
    3.8637   -0.0610    0.2223 C   0  0  0  0  0  0  0  0  0  0  0  0
    2.7729   -0.0614   -0.6547 C   0  0  0  0  0  0  0  0  0  0  0  0
    2.1030   -1.2172   -1.0907 N   0  0  0  0  0  0  0  0  0  0  0  0
    2.3574   -2.5148   -0.7726 C   0  0  0  0  0  0  0  0  0  0  0  0
    3.2338   -2.9247   -0.0325 O   0  0  0  0  0  0  0  0  0  0  0  0
    1.4237   -3.5338   -1.4331 C   0  0  0  0  0  0  0  0  0  0  0  0
    0.4644   -2.9003   -2.2615 O   0  0  0  0  0  0  0  0  0  0  0  0
   -0.4519   -3.6356   -2.9343 C   0  0  0  0  0  0  0  0  0  0  0  0
   -0.5353   -5.0352   -2.8756 C   0  0  0  0  0  0  0  0  0  0  0  0
   -1.5231   -5.6752   -3.6164 C   0  0  0  0  0  0  0  0  0  0  0  0
   -2.4211   -4.9488   -4.4034 C   0  0  0  0  0  0  0  0  0  0  0  0
   -3.4250   -5.7366   -5.1405 N   0  0  0  0  0  0  0  0  0  0  0  0
   -3.3633   -6.9546   -5.0613 O   0  0  0  0  0  0  0  0  0  0  0  0
   -4.2695   -5.1370   -5.7917 O   0  0  0  0  0  0  0  0  0  0  0  0
   -2.3603   -3.5340   -4.4811 C   0  0  0  0  0  0  0  0  0  0  0  0
   -3.2802   -2.6658   -5.3021 C   0  0  0  0  0  0  0  0  0  0  0  0
   -1.3571   -2.9151   -3.7303 C   0  0  0  0  0  0  0  0  0  0  0  0
   -0.1765    1.9131   -3.1995 H   0  0  0  0  0  0  0  0  0  0  0  0
    1.3876    2.7889   -3.1748 H   0  0  0  0  0  0  0  0  0  0  0  0
    0.2649    2.9114   -1.7773 H   0  0  0  0  0  0  0  0  0  0  0  0
    2.5140    3.3224   -1.1624 H   0  0  0  0  0  0  0  0  0  0  0  0
    4.4442    3.3022    0.3915 H   0  0  0  0  0  0  0  0  0  0  0  0
    5.3120    1.1354    1.2810 H   0  0  0  0  0  0  0  0  0  0  0  0
    4.2286   -1.0137    0.5999 H   0  0  0  0  0  0  0  0  0  0  0  0
    1.3290   -1.0499   -1.7278 H   0  0  0  0  0  0  0  0  0  0  0  0
    0.9383   -4.1079   -0.6244 H   0  0  0  0  0  0  0  0  0  0  0  0
    2.0543   -4.2315   -2.0115 H   0  0  0  0  0  0  0  0  0  0  0  0
    0.1501   -5.6259   -2.2690 H   0  0  0  0  0  0  0  0  0  0  0  0
   -1.6185   -6.7600   -3.5994 H   0  0  0  0  0  0  0  0  0  0  0  0
   -3.2570   -2.9447   -6.3651 H   0  0  0  0  0  0  0  0  0  0  0  0
   -2.9880   -1.6108   -5.2006 H   0  0  0  0  0  0  0  0  0  0  0  0
   -4.3273   -2.7808   -4.9875 H   0  0  0  0  0  0  0  0  0  0  0  0
   -1.2596   -1.8281   -3.7525 H   0  0  0  0  0  0  0  0  0  0  0  0
  1  2  1  0
  1 24  1  0
  1 25  1  0
  1 26  1  0
  2  3  1  0
  3  4  2  0
  3  8  1  0
  4  5  1  0
  4 27  1  0
  5  6  2  0
  5 28  1  0
  6  7  1  0
  6 29  1  0
  7  8  2  0
  7 30  1  0
  8  9  1  0
  9 10  1  0
  9 31  1  0
 10 11  2  0
 10 12  1  0
 12 13  1  0
 12 32  1  0
 12 33  1  0
 13 14  1  0
 14 15  2  0
 14 23  1  0
 15 16  1  0
 15 34  1  0
 16 17  2  0
 16 35  1  0
 17 18  1  0
 17 21  1  0
 18 19  2  0
 18 20  1  0
 21 22  1  0
 21 23  2  0
 22 36  1  0
 22 37  1  0
 22 38  1  0
 23 39  1  0
M  CHG  2  18   1  20  -1
M  END

