
     RDKit          3D

 22 22  0  0  0  0  0  0  0  0999 V2000
    1.1115   -0.1809    0.0972 C   0  0  0  0  0  0  0  0  0  0  0  0
    2.6133   -0.0418    0.0316 C   0  0  0  0  0  0  0  0  0  0  0  0
    3.3027    1.2086    0.0533 C   0  0  0  0  0  0  0  0  0  0  0  0
    2.5846    2.4895    0.0419 N   0  0  0  0  0  0  0  0  0  0  0  0
    1.4180    2.4905   -0.3335 O   0  0  0  0  0  0  0  0  0  0  0  0
    3.1957    3.4884    0.3871 O   0  0  0  0  0  0  0  0  0  0  0  0
    4.6830    1.2835    0.0616 C   0  0  0  0  0  0  0  0  0  0  0  0
    5.4492    0.1167    0.0173 C   0  0  0  0  0  0  0  0  0  0  0  0
    6.8994    0.2666    0.0140 N   0  0  0  0  0  0  0  0  0  0  0  0
    7.3652    1.3916    0.0475 O   0  0  0  0  0  0  0  0  0  0  0  0
    7.5911   -0.7552   -0.0214 O   0  0  0  0  0  0  0  0  0  0  0  0
    4.8370   -1.1638   -0.0334 C   0  0  0  0  0  0  0  0  0  0  0  0
    5.4878   -2.3387   -0.0841 N   0  0  0  0  0  0  0  0  0  0  0  0
    3.4020   -1.1865   -0.0265 C   0  0  0  0  0  0  0  0  0  0  0  0
    2.8951   -2.4526   -0.0679 O   0  0  0  0  0  0  0  0  0  0  0  0
    0.6437   -0.0149   -0.8858 H   0  0  0  0  0  0  0  0  0  0  0  0
    0.6683    0.5604    0.7722 H   0  0  0  0  0  0  0  0  0  0  0  0
    0.8139   -1.1757    0.4677 H   0  0  0  0  0  0  0  0  0  0  0  0
    5.1793    2.2501    0.0950 H   0  0  0  0  0  0  0  0  0  0  0  0
    6.5021   -2.3245   -0.0836 H   0  0  0  0  0  0  0  0  0  0  0  0
    4.9443   -3.1900   -0.1252 H   0  0  0  0  0  0  0  0  0  0  0  0
    1.9352   -2.4287   -0.1687 H   0  0  0  0  0  0  0  0  0  0  0  0
  1  2  1  0
  1 16  1  0
  1 17  1  0
  1 18  1  0
  2  3  2  0
  2 14  1  0
  3  4  1  0
  3  7  1  0
  4  5  1  0
  4  6  1  0
  7  8  2  0
  7 19  1  0
  8  9  1  0
  8 12  1  0
  9 10  2  0
  9 11  1  0
 12 13  2  0
 12 14  1  0
 13 20  1  0
 13 21  1  0
 14 15  2  0
 15 22  1  0
M  CHG  6   5  -1   6  -1   9   1  11  -1  13   1  15   1
M  END

