
     RDKit          3D

 34 35  0  0  0  0  0  0  0  0999 V2000
    1.9912    0.9563   -0.3308 C   0  0  0  0  0  0  0  0  0  0  0  0
    3.0323    0.2571    0.3358 O   0  0  0  0  0  0  0  0  0  0  0  0
    3.4770   -0.9429   -0.1042 C   0  0  0  0  0  0  0  0  0  0  0  0
    4.7567   -1.3374    0.3132 C   0  0  0  0  0  0  0  0  0  0  0  0
    5.3034   -2.5669   -0.0547 C   0  0  0  0  0  0  0  0  0  0  0  0
    4.5934   -3.4582   -0.8727 C   0  0  0  0  0  0  0  0  0  0  0  0
    5.1609   -4.7981   -1.3445 C   0  0  1  0  0  0  0  0  0  0  0  0
    6.4745   -5.2038   -0.6597 C   0  0  0  0  0  0  0  0  0  0  0  0
    4.1257   -5.8185   -1.2239 N   0  0  0  0  0  0  0  0  0  0  0  0
    4.1607   -7.0428   -1.8703 C   0  0  0  0  0  0  0  0  0  0  0  0
    4.9558   -7.3427   -2.9930 C   0  0  0  0  0  0  0  0  0  0  0  0
    4.8887   -8.5907   -3.6249 C   0  0  0  0  0  0  0  0  0  0  0  0
    4.0275   -9.5641   -3.1354 C   0  0  0  0  0  0  0  0  0  0  0  0
    3.9606  -10.7654   -3.7343 F   0  0  0  0  0  0  0  0  0  0  0  0
    3.2261   -9.3181   -2.0189 C   0  0  0  0  0  0  0  0  0  0  0  0
    3.3104   -8.0748   -1.4141 C   0  0  0  0  0  0  0  0  0  0  0  0
    2.5492   -7.8133   -0.3295 F   0  0  0  0  0  0  0  0  0  0  0  0
    3.3111   -3.0725   -1.2919 C   0  0  0  0  0  0  0  0  0  0  0  0
    2.7671   -1.8524   -0.9115 C   0  0  0  0  0  0  0  0  0  0  0  0
    1.5175   -1.5572   -1.3283 F   0  0  0  0  0  0  0  0  0  0  0  0
    1.9942    1.9713    0.0899 H   0  0  0  0  0  0  0  0  0  0  0  0
    1.0071    0.4947   -0.1596 H   0  0  0  0  0  0  0  0  0  0  0  0
    2.1734    1.0162   -1.4169 H   0  0  0  0  0  0  0  0  0  0  0  0
    5.3118   -0.6418    0.9460 H   0  0  0  0  0  0  0  0  0  0  0  0
    6.3021   -2.8171    0.3036 H   0  0  0  0  0  0  0  0  0  0  0  0
    5.3692   -4.6854   -2.4244 H   0  0  0  0  0  0  0  0  0  0  0  0
    6.3466   -5.2741    0.4322 H   0  0  0  0  0  0  0  0  0  0  0  0
    7.2819   -4.4853   -0.8689 H   0  0  0  0  0  0  0  0  0  0  0  0
    6.8014   -6.1879   -1.0268 H   0  0  0  0  0  0  0  0  0  0  0  0
    3.6315   -5.8274   -0.3382 H   0  0  0  0  0  0  0  0  0  0  0  0
    5.6386   -6.5911   -3.3900 H   0  0  0  0  0  0  0  0  0  0  0  0
    5.5080   -8.8110   -4.4962 H   0  0  0  0  0  0  0  0  0  0  0  0
    2.5512  -10.0792   -1.6258 H   0  0  0  0  0  0  0  0  0  0  0  0
    2.7033   -3.7329   -1.9133 H   0  0  0  0  0  0  0  0  0  0  0  0
  1  2  1  0
  1 21  1  0
  1 22  1  0
  1 23  1  0
  2  3  1  0
  3  4  2  0
  3 19  1  0
  4  5  1  0
  4 24  1  0
  5  6  2  0
  5 25  1  0
  6  7  1  0
  6 18  1  0
  7  8  1  0
  7  9  1  0
  7 26  1  6
  8 27  1  0
  8 28  1  0
  8 29  1  0
  9 10  1  0
  9 30  1  0
 10 11  2  0
 10 16  1  0
 11 12  1  0
 11 31  1  0
 12 13  2  0
 12 32  1  0
 13 14  1  0
 13 15  1  0
 15 16  2  0
 15 33  1  0
 16 17  1  0
 18 19  2  0
 18 34  1  0
 19 20  1  0
M  END

