
     RDKit          3D

 38 39  0  0  0  0  0  0  0  0999 V2000
    5.5634   -2.2013   -0.8652 C   0  0  0  0  0  0  0  0  0  0  0  0
    4.9614   -0.8219   -0.5979 C   0  0  0  0  0  0  0  0  0  0  0  0
    5.5816   -0.1314    0.6181 C   0  0  0  0  0  0  0  0  0  0  0  0
    5.0046    1.2674    0.8579 C   0  0  0  0  0  0  0  0  0  0  0  0
    4.3122    1.8042    0.0094 O   0  0  0  0  0  0  0  0  0  0  0  0
    5.2811    1.8648    2.0822 N   0  0  0  0  0  0  0  0  0  0  0  0
    6.5180    1.5425    2.7948 C   0  0  0  0  0  0  0  0  0  0  0  0
    7.6938    2.3698    2.2567 C   0  0  0  0  0  0  0  0  0  0  0  0
    7.3584    4.1530    2.4276 S   0  0  1  0  0  0  0  0  0  0  0  0
    7.2980    4.4179    3.8790 O   0  0  0  0  0  0  0  0  0  0  0  0
    8.2859    4.8990    1.5667 O   0  0  0  0  0  0  0  0  0  0  0  0
    5.6452    4.3158    1.7708 C   0  0  2  0  0  0  0  0  0  0  0  0
    5.1646    5.7388    2.0896 C   0  0  0  0  0  0  0  0  0  0  0  0
    3.6685    5.9054    1.7989 C   0  0  0  0  0  0  0  0  0  0  0  0
    2.8425    4.8487    2.5411 C   0  0  0  0  0  0  0  0  0  0  0  0
    3.2690    3.4342    2.1317 C   0  0  0  0  0  0  0  0  0  0  0  0
    4.7665    3.2137    2.4083 C   0  0  1  0  0  0  0  0  0  0  0  0
    5.0975   -2.6747   -1.7436 H   0  0  0  0  0  0  0  0  0  0  0  0
    5.4210   -2.8816   -0.0084 H   0  0  0  0  0  0  0  0  0  0  0  0
    6.6478   -2.1398   -1.0593 H   0  0  0  0  0  0  0  0  0  0  0  0
    3.8725   -0.9049   -0.4464 H   0  0  0  0  0  0  0  0  0  0  0  0
    5.0845   -0.1704   -1.4770 H   0  0  0  0  0  0  0  0  0  0  0  0
    6.6750   -0.0486    0.4750 H   0  0  0  0  0  0  0  0  0  0  0  0
    5.4431   -0.7481    1.5230 H   0  0  0  0  0  0  0  0  0  0  0  0
    6.7492    0.4737    2.7122 H   0  0  0  0  0  0  0  0  0  0  0  0
    6.3836    1.7604    3.8651 H   0  0  0  0  0  0  0  0  0  0  0  0
    7.8909    2.1816    1.1908 H   0  0  0  0  0  0  0  0  0  0  0  0
    8.6208    2.2203    2.8315 H   0  0  0  0  0  0  0  0  0  0  0  0
    5.7276    4.1543    0.6844 H   0  0  0  0  0  0  0  0  0  0  0  0
    5.7683    6.4613    1.5192 H   0  0  0  0  0  0  0  0  0  0  0  0
    5.3544    5.9369    3.1578 H   0  0  0  0  0  0  0  0  0  0  0  0
    3.4855    5.8173    0.7131 H   0  0  0  0  0  0  0  0  0  0  0  0
    3.3534    6.9208    2.0899 H   0  0  0  0  0  0  0  0  0  0  0  0
    1.7692    4.9823    2.3292 H   0  0  0  0  0  0  0  0  0  0  0  0
    2.9660    4.9869    3.6312 H   0  0  0  0  0  0  0  0  0  0  0  0
    3.0623    3.2779    1.0665 H   0  0  0  0  0  0  0  0  0  0  0  0
    2.6991    2.6724    2.6890 H   0  0  0  0  0  0  0  0  0  0  0  0
    4.8967    3.3133    3.4994 H   0  0  0  0  0  0  0  0  0  0  0  0
  1  2  1  0
  1 18  1  0
  1 19  1  0
  1 20  1  0
  2  3  1  0
  2 21  1  0
  2 22  1  0
  3  4  1  0
  3 23  1  0
  3 24  1  0
  4  5  2  0
  4  6  1  0
  6  7  1  0
  6 17  1  0
  7  8  1  0
  7 25  1  0
  7 26  1  0
  9  8  1  1
  8 27  1  0
  8 28  1  0
  9 10  2  0
  9 11  2  0
  9 12  1  0
 12 13  1  0
 12 17  1  0
 12 29  1  6
 13 14  1  0
 13 30  1  0
 13 31  1  0
 14 15  1  0
 14 32  1  0
 14 33  1  0
 15 16  1  0
 15 34  1  0
 15 35  1  0
 16 17  1  0
 16 36  1  0
 16 37  1  0
 17 38  1  1
M  END

