
     RDKit          3D

 54 60  0  0  0  0  0  0  0  0999 V2000
   -2.2271   -1.8307    1.4245 C   0  0  0  0  0  0  0  0  0  0  0  0
   -1.7626   -2.8548    0.5939 C   0  0  0  0  0  0  0  0  0  0  0  0
   -0.6015   -2.6773   -0.1614 C   0  0  0  0  0  0  0  0  0  0  0  0
    0.1240   -1.4719   -0.1056 C   0  0  0  0  0  0  0  0  0  0  0  0
    1.3623   -1.2827   -0.9100 C   0  0  0  0  0  0  0  0  0  0  0  0
    1.4553   -1.7975   -2.2202 C   0  0  0  0  0  0  0  0  0  0  0  0
    2.6101   -1.6297   -2.9927 C   0  0  0  0  0  0  0  0  0  0  0  0
    3.6942   -0.9391   -2.4584 C   0  0  0  0  0  0  0  0  0  0  0  0
    3.6192   -0.4156   -1.1480 C   0  0  0  0  0  0  0  0  0  0  0  0
    2.4643   -0.5853   -0.3801 C   0  0  0  0  0  0  0  0  0  0  0  0
    4.8913    0.2533   -0.8368 C   0  0  0  0  0  0  0  0  0  0  0  0
    5.3155    0.9205    0.3211 C   0  0  0  0  0  0  0  0  0  0  0  0
    6.5951    1.4822    0.3645 C   0  0  0  0  0  0  0  0  0  0  0  0
    7.4375    1.3724   -0.7508 C   0  0  0  0  0  0  0  0  0  0  0  0
    7.0113    0.6976   -1.9215 C   0  0  0  0  0  0  0  0  0  0  0  0
    5.7414    0.1395   -1.9645 C   0  0  0  0  0  0  0  0  0  0  0  0
    5.0428   -0.6227   -3.0700 C   0  0  0  0  0  0  0  0  0  0  0  0
    8.1064    0.7238   -2.9663 C   0  0  0  0  0  0  0  0  0  0  0  0
    9.2149    1.4866   -2.2714 C   0  0  0  0  0  0  0  0  0  0  0  0
   10.4858    1.8287   -2.7250 C   0  0  0  0  0  0  0  0  0  0  0  0
   11.3449    2.5446   -1.8837 C   0  0  0  0  0  0  0  0  0  0  0  0
   10.9542    2.9292   -0.5838 C   0  0  0  0  0  0  0  0  0  0  0  0
   11.8830    3.6921    0.2945 C   0  0  0  0  0  0  0  0  0  0  0  0
   11.4085    4.7171    1.1354 C   0  0  0  0  0  0  0  0  0  0  0  0
   12.2785    5.4329    1.9605 C   0  0  0  0  0  0  0  0  0  0  0  0
   13.6458    5.1414    1.9651 C   0  0  0  0  0  0  0  0  0  0  0  0
   14.1335    4.1267    1.1361 C   0  0  0  0  0  0  0  0  0  0  0  0
   13.2627    3.4114    0.3114 C   0  0  0  0  0  0  0  0  0  0  0  0
    9.6666    2.5785   -0.1359 C   0  0  0  0  0  0  0  0  0  0  0  0
    8.8058    1.8633   -0.9725 C   0  0  0  0  0  0  0  0  0  0  0  0
   -0.3576   -0.4506    0.7357 C   0  0  0  0  0  0  0  0  0  0  0  0
   -1.5184   -0.6274    1.4916 C   0  0  0  0  0  0  0  0  0  0  0  0
   -3.1357   -1.9694    2.0159 H   0  0  0  0  0  0  0  0  0  0  0  0
   -2.3033   -3.8035    0.5393 H   0  0  0  0  0  0  0  0  0  0  0  0
   -0.2367   -3.4953   -0.7870 H   0  0  0  0  0  0  0  0  0  0  0  0
    0.5966   -2.3176   -2.6505 H   0  0  0  0  0  0  0  0  0  0  0  0
    2.6485   -2.0339   -4.0083 H   0  0  0  0  0  0  0  0  0  0  0  0
    2.4213   -0.2007    0.6414 H   0  0  0  0  0  0  0  0  0  0  0  0
    4.6542    1.0024    1.1873 H   0  0  0  0  0  0  0  0  0  0  0  0
    6.9321    2.0029    1.2644 H   0  0  0  0  0  0  0  0  0  0  0  0
    5.5935   -1.5383   -3.3534 H   0  0  0  0  0  0  0  0  0  0  0  0
    4.9483   -0.0217   -3.9929 H   0  0  0  0  0  0  0  0  0  0  0  0
    7.7798    1.2240   -3.8963 H   0  0  0  0  0  0  0  0  0  0  0  0
    8.4248   -0.2935   -3.2583 H   0  0  0  0  0  0  0  0  0  0  0  0
   10.8149    1.5519   -3.7307 H   0  0  0  0  0  0  0  0  0  0  0  0
   12.3320    2.8340   -2.2509 H   0  0  0  0  0  0  0  0  0  0  0  0
   10.3465    4.9733    1.1233 H   0  0  0  0  0  0  0  0  0  0  0  0
   11.8862    6.2298    2.5979 H   0  0  0  0  0  0  0  0  0  0  0  0
   14.3270    5.7014    2.6107 H   0  0  0  0  0  0  0  0  0  0  0  0
   15.1993    3.8836    1.1370 H   0  0  0  0  0  0  0  0  0  0  0  0
   13.6544    2.6044   -0.3123 H   0  0  0  0  0  0  0  0  0  0  0  0
    9.3539    2.8452    0.8763 H   0  0  0  0  0  0  0  0  0  0  0  0
    0.1717    0.5042    0.7787 H   0  0  0  0  0  0  0  0  0  0  0  0
   -1.8763    0.1841    2.1308 H   0  0  0  0  0  0  0  0  0  0  0  0
  1  2  2  0
  1 32  1  0
  1 33  1  0
  2  3  1  0
  2 34  1  0
  3  4  2  0
  3 35  1  0
  4  5  1  0
  4 31  1  0
  5  6  2  0
  5 10  1  0
  6  7  1  0
  6 36  1  0
  7  8  2  0
  7 37  1  0
  8  9  1  0
  8 17  1  0
  9 10  2  0
  9 11  1  0
 10 38  1  0
 11 12  2  0
 11 16  1  0
 12 13  1  0
 12 39  1  0
 13 14  2  0
 13 40  1  0
 14 15  1  0
 14 30  1  0
 15 16  2  0
 15 18  1  0
 16 17  1  0
 17 41  1  0
 17 42  1  0
 18 19  1  0
 18 43  1  0
 18 44  1  0
 19 20  1  0
 19 30  2  0
 20 21  2  0
 20 45  1  0
 21 22  1  0
 21 46  1  0
 22 23  1  0
 22 29  2  0
 23 24  2  0
 23 28  1  0
 24 25  1  0
 24 47  1  0
 25 26  2  0
 25 48  1  0
 26 27  1  0
 26 49  1  0
 27 28  2  0
 27 50  1  0
 28 51  1  0
 29 30  1  0
 29 52  1  0
 31 32  2  0
 31 53  1  0
 32 54  1  0
M  END

