
     RDKit          3D

 29 30  0  0  0  0  0  0  0  0999 V2000
    0.9478   -0.1097   -0.0604 O   0  0  0  0  0  0  0  0  0  0  0  0
    2.1599   -0.1366   -0.0170 C   0  0  0  0  0  0  0  0  0  0  0  0
    2.8758    0.1236    1.1510 N   0  0  0  0  0  0  0  0  0  0  0  0
    2.2665    0.4858    2.3628 C   0  0  0  0  0  0  0  0  0  0  0  0
    1.3715   -0.3644    3.0468 C   0  0  0  0  0  0  0  0  0  0  0  0
    1.0502   -1.9654    2.4511 Cl  0  0  0  0  0  0  0  0  0  0  0  0
    0.7646    0.0240    4.2442 C   0  0  0  0  0  0  0  0  0  0  0  0
    1.0755    1.2653    4.7989 C   0  0  0  0  0  0  0  0  0  0  0  0
    0.2601    1.7925    6.4351 Br  0  0  0  0  0  0  0  0  0  0  0  0
    1.9864    2.1218    4.1793 C   0  0  0  0  0  0  0  0  0  0  0  0
    2.5593    1.7241    2.9717 C   0  0  0  0  0  0  0  0  0  0  0  0
    3.6947    2.8030    2.1900 Cl  0  0  0  0  0  0  0  0  0  0  0  0
    3.0059   -0.4413   -1.2210 C   0  0  0  0  0  0  0  0  0  0  0  0
    2.4107   -0.2933   -2.4834 C   0  0  0  0  0  0  0  0  0  0  0  0
    3.1349   -0.5660   -3.6414 C   0  0  0  0  0  0  0  0  0  0  0  0
    4.4646   -1.0120   -3.5681 C   0  0  0  0  0  0  0  0  0  0  0  0
    5.2493   -1.2902   -4.8171 C   0  0  0  0  0  0  0  0  0  0  0  0
    6.2033    0.1697   -5.3508 Cl  0  0  0  0  0  0  0  0  0  0  0  0
    5.0520   -1.1755   -2.3045 C   0  0  0  0  0  0  0  0  0  0  0  0
    4.3325   -0.8957   -1.1428 C   0  0  0  0  0  0  0  0  0  0  0  0
    3.8221    0.4683    1.0255 H   0  0  0  0  0  0  0  0  0  0  0  0
    0.0730   -0.6563    4.7397 H   0  0  0  0  0  0  0  0  0  0  0  0
    2.2424    3.0878    4.6125 H   0  0  0  0  0  0  0  0  0  0  0  0
    1.3716    0.0374   -2.5317 H   0  0  0  0  0  0  0  0  0  0  0  0
    2.6633   -0.4346   -4.6190 H   0  0  0  0  0  0  0  0  0  0  0  0
    4.5955   -1.5526   -5.6584 H   0  0  0  0  0  0  0  0  0  0  0  0
    5.9822   -2.0934   -4.6680 H   0  0  0  0  0  0  0  0  0  0  0  0
    6.0829   -1.5317   -2.2295 H   0  0  0  0  0  0  0  0  0  0  0  0
    4.8026   -1.0662   -0.1715 H   0  0  0  0  0  0  0  0  0  0  0  0
  1  2  2  0
  2  3  1  0
  2 13  1  0
  3  4  1  0
  3 21  1  0
  4  5  2  0
  4 11  1  0
  5  6  1  0
  5  7  1  0
  7  8  2  0
  7 22  1  0
  8  9  1  0
  8 10  1  0
 10 11  2  0
 10 23  1  0
 11 12  1  0
 13 14  2  0
 13 20  1  0
 14 15  1  0
 14 24  1  0
 15 16  2  0
 15 25  1  0
 16 17  1  0
 16 19  1  0
 17 18  1  0
 17 26  1  0
 17 27  1  0
 19 20  2  0
 19 28  1  0
 20 29  1  0
M  END

