
     RDKit          3D

 55 57  0  0  0  0  0  0  0  0999 V2000
    0.9985   -1.1989    3.0657 C   0  0  0  0  0  0  0  0  0  0  0  0
    2.2762   -1.3664    2.2663 C   0  0  0  0  0  0  0  0  0  0  0  0
    3.3724   -1.0829    3.1239 O   0  0  0  0  0  0  0  0  0  0  0  0
    4.6387   -1.1657    2.6493 C   0  0  0  0  0  0  0  0  0  0  0  0
    4.9751   -1.5079    1.3324 C   0  0  0  0  0  0  0  0  0  0  0  0
    6.3256   -1.5620    0.9761 C   0  0  0  0  0  0  0  0  0  0  0  0
    7.3514   -1.2520    1.8713 C   0  0  0  0  0  0  0  0  0  0  0  0
    8.7753   -1.4439    1.4094 C   0  0  0  0  0  0  0  0  0  0  0  0
    9.1109   -2.5074    0.9059 O   0  0  0  0  0  0  0  0  0  0  0  0
    9.6551   -0.3922    1.5378 N   0  0  0  0  0  0  0  0  0  0  0  0
   11.0599   -0.5901    1.1948 C   0  0  0  0  0  0  0  0  0  0  0  0
   11.5133    0.4070    0.1279 C   0  0  0  0  0  0  0  0  0  0  0  0
   11.1878    1.7726    0.5347 N   0  0  0  0  0  0  0  0  0  0  0  0
   12.1643    2.7339    0.5162 C   0  0  0  0  0  0  0  0  0  0  0  0
   13.3167    2.4862    0.1897 O   0  0  0  0  0  0  0  0  0  0  0  0
   11.7514    4.1581    0.9557 C   0  0  1  0  0  0  0  0  0  0  0  0
   11.3484    4.0972    1.9841 H   0  0  0  0  0  0  0  0  0  0  0  0
   12.9106    5.1658    0.8781 C   0  0  0  0  0  0  0  0  0  0  0  0
   12.2440    6.4216    0.2994 C   0  0  0  0  0  0  0  0  0  0  0  0
   11.1720    5.8090   -0.5991 C   0  0  0  0  0  0  0  0  0  0  0  0
   10.7076    4.6638    0.1104 O   0  0  0  0  0  0  0  0  0  0  0  0
    9.7771    1.9662    0.8474 C   0  0  0  0  0  0  0  0  0  0  0  0
    9.3156    0.9686    1.9189 C   0  0  0  0  0  0  0  0  0  0  0  0
    6.9967   -0.9364    3.2068 C   0  0  0  0  0  0  0  0  0  0  0  0
    8.0208   -0.7034    4.0672 O   0  0  0  0  0  0  0  0  0  0  0  0
    7.7556   -0.4743    5.4443 C   0  0  0  0  0  0  0  0  0  0  0  0
    9.0825   -0.3255    6.1631 C   0  0  0  0  0  0  0  0  0  0  0  0
    5.6523   -0.8884    3.5844 C   0  0  0  0  0  0  0  0  0  0  0  0
    0.1230   -1.4106    2.4326 H   0  0  0  0  0  0  0  0  0  0  0  0
    0.9110   -0.1707    3.4490 H   0  0  0  0  0  0  0  0  0  0  0  0
    0.9830   -1.8884    3.9236 H   0  0  0  0  0  0  0  0  0  0  0  0
    2.2893   -0.6803    1.3986 H   0  0  0  0  0  0  0  0  0  0  0  0
    2.3618   -2.3970    1.8738 H   0  0  0  0  0  0  0  0  0  0  0  0
    4.2126   -1.7439    0.5915 H   0  0  0  0  0  0  0  0  0  0  0  0
    6.6007   -1.8608   -0.0380 H   0  0  0  0  0  0  0  0  0  0  0  0
   11.1734   -1.6213    0.8388 H   0  0  0  0  0  0  0  0  0  0  0  0
   11.6771   -0.4571    2.1035 H   0  0  0  0  0  0  0  0  0  0  0  0
   11.0064    0.1792   -0.8284 H   0  0  0  0  0  0  0  0  0  0  0  0
   12.5969    0.3521   -0.0318 H   0  0  0  0  0  0  0  0  0  0  0  0
   13.6835    4.7693    0.2045 H   0  0  0  0  0  0  0  0  0  0  0  0
   13.3802    5.3330    1.8581 H   0  0  0  0  0  0  0  0  0  0  0  0
   12.9455    7.0704   -0.2466 H   0  0  0  0  0  0  0  0  0  0  0  0
   11.7724    7.0228    1.0945 H   0  0  0  0  0  0  0  0  0  0  0  0
   11.5965    5.5142   -1.5794 H   0  0  0  0  0  0  0  0  0  0  0  0
   10.3090    6.4675   -0.7844 H   0  0  0  0  0  0  0  0  0  0  0  0
    9.1805    1.8091   -0.0712 H   0  0  0  0  0  0  0  0  0  0  0  0
    9.5864    2.9941    1.1716 H   0  0  0  0  0  0  0  0  0  0  0  0
    8.2306    1.0574    2.0496 H   0  0  0  0  0  0  0  0  0  0  0  0
    9.7948    1.2186    2.8839 H   0  0  0  0  0  0  0  0  0  0  0  0
    7.1782   -1.3213    5.8583 H   0  0  0  0  0  0  0  0  0  0  0  0
    7.1387    0.4361    5.5640 H   0  0  0  0  0  0  0  0  0  0  0  0
    9.6938   -1.2326    6.0418 H   0  0  0  0  0  0  0  0  0  0  0  0
    8.9140   -0.1592    7.2383 H   0  0  0  0  0  0  0  0  0  0  0  0
    9.6516    0.5292    5.7660 H   0  0  0  0  0  0  0  0  0  0  0  0
    5.3442   -0.6504    4.6009 H   0  0  0  0  0  0  0  0  0  0  0  0
  1  2  1  0
  1 29  1  0
  1 30  1  0
  1 31  1  0
  2  3  1  0
  2 32  1  0
  2 33  1  0
  3  4  1  0
  4  5  2  0
  4 28  1  0
  5  6  1  0
  5 34  1  0
  6  7  2  0
  6 35  1  0
  7  8  1  0
  7 24  1  0
  8  9  2  0
  8 10  1  0
 10 11  1  0
 10 23  1  0
 11 12  1  0
 11 36  1  0
 11 37  1  0
 12 13  1  0
 12 38  1  0
 12 39  1  0
 13 14  1  0
 13 22  1  0
 14 15  2  0
 14 16  1  0
 16 17  1  1
 16 18  1  0
 16 21  1  0
 18 19  1  0
 18 40  1  0
 18 41  1  0
 19 20  1  0
 19 42  1  0
 19 43  1  0
 20 21  1  0
 20 44  1  0
 20 45  1  0
 22 23  1  0
 22 46  1  0
 22 47  1  0
 23 48  1  0
 23 49  1  0
 24 25  1  0
 24 28  2  0
 25 26  1  0
 26 27  1  0
 26 50  1  0
 26 51  1  0
 27 52  1  0
 27 53  1  0
 27 54  1  0
 28 55  1  0
M  END

