
     RDKit          3D

 38 38  0  0  0  0  0  0  0  0999 V2000
    6.1283    2.6494   -0.3326 C   0  0  0  0  0  0  0  0  0  0  0  0
    7.0615    1.6284    0.2952 C   0  0  0  0  0  0  0  0  0  0  0  0
    7.4207    0.5902   -0.6335 O   0  0  0  0  0  0  0  0  0  0  0  0
    6.5668   -0.4309   -0.7543 C   0  0  0  0  0  0  0  0  0  0  0  0
    5.5355   -0.5666   -0.1406 O   0  0  0  0  0  0  0  0  0  0  0  0
    7.0541   -1.2747   -1.6686 O   0  0  0  0  0  0  0  0  0  0  0  0
    6.2827   -2.4617   -1.9511 C   0  0  2  0  0  0  0  0  0  0  0  0
    5.2153   -2.2001   -1.8964 H   0  0  0  0  0  0  0  0  0  0  0  0
    6.5865   -3.5625   -0.9339 C   0  0  0  0  0  0  0  0  0  0  0  0
    5.8812   -4.8708   -1.3190 C   0  0  0  0  0  0  0  0  0  0  0  0
    6.2419   -5.3070   -2.7444 C   0  0  0  0  0  0  0  0  0  0  0  0
    5.9789   -4.1989   -3.7685 C   0  0  1  0  0  0  0  0  0  0  0  0
    6.3170   -4.5210   -4.7640 H   0  0  0  0  0  0  0  0  0  0  0  0
    4.5560   -3.9272   -3.8541 O   0  0  0  0  0  0  0  0  0  0  0  0
    3.8346   -4.6992   -4.6732 C   0  0  0  0  0  0  0  0  0  0  0  0
    4.2635   -5.5941   -5.3618 O   0  0  0  0  0  0  0  0  0  0  0  0
    2.5595   -4.3109   -4.5970 O   0  0  0  0  0  0  0  0  0  0  0  0
    1.6172   -5.0070   -5.4330 C   0  0  0  0  0  0  0  0  0  0  0  0
    1.5734   -4.4281   -6.8365 C   0  0  0  0  0  0  0  0  0  0  0  0
    6.6469   -2.8831   -3.3735 C   0  0  0  0  0  0  0  0  0  0  0  0
    5.9379    3.4697    0.3779 H   0  0  0  0  0  0  0  0  0  0  0  0
    5.1627    2.1886   -0.5890 H   0  0  0  0  0  0  0  0  0  0  0  0
    6.5717    3.0790   -1.2445 H   0  0  0  0  0  0  0  0  0  0  0  0
    6.6042    1.1709    1.1853 H   0  0  0  0  0  0  0  0  0  0  0  0
    8.0201    2.0857    0.5801 H   0  0  0  0  0  0  0  0  0  0  0  0
    6.2703   -3.2300    0.0665 H   0  0  0  0  0  0  0  0  0  0  0  0
    7.6803   -3.7156   -0.9026 H   0  0  0  0  0  0  0  0  0  0  0  0
    4.7891   -4.7334   -1.2457 H   0  0  0  0  0  0  0  0  0  0  0  0
    6.1442   -5.6655   -0.6025 H   0  0  0  0  0  0  0  0  0  0  0  0
    5.6907   -6.2122   -3.0424 H   0  0  0  0  0  0  0  0  0  0  0  0
    7.3153   -5.5615   -2.7999 H   0  0  0  0  0  0  0  0  0  0  0  0
    0.6527   -4.8841   -4.9197 H   0  0  0  0  0  0  0  0  0  0  0  0
    1.8785   -6.0757   -5.4542 H   0  0  0  0  0  0  0  0  0  0  0  0
    1.3491   -3.3504   -6.8105 H   0  0  0  0  0  0  0  0  0  0  0  0
    0.7876   -4.9299   -7.4238 H   0  0  0  0  0  0  0  0  0  0  0  0
    2.5337   -4.5800   -7.3514 H   0  0  0  0  0  0  0  0  0  0  0  0
    6.3691   -2.0908   -4.0855 H   0  0  0  0  0  0  0  0  0  0  0  0
    7.7400   -3.0139   -3.4376 H   0  0  0  0  0  0  0  0  0  0  0  0
  1  2  1  0
  1 21  1  0
  1 22  1  0
  1 23  1  0
  2  3  1  0
  2 24  1  0
  2 25  1  0
  3  4  1  0
  4  5  2  0
  4  6  1  0
  6  7  1  0
  7  8  1  6
  7  9  1  0
  7 20  1  0
  9 10  1  0
  9 26  1  0
  9 27  1  0
 10 11  1  0
 10 28  1  0
 10 29  1  0
 11 12  1  0
 11 30  1  0
 11 31  1  0
 12 13  1  6
 12 14  1  0
 12 20  1  0
 14 15  1  0
 15 16  2  0
 15 17  1  0
 17 18  1  0
 18 19  1  0
 18 32  1  0
 18 33  1  0
 19 34  1  0
 19 35  1  0
 19 36  1  0
 20 37  1  0
 20 38  1  0
M  END

