
     RDKit          3D

 52 56  0  0  0  0  0  0  0  0999 V2000
    0.8815    0.2518    0.3346 C   0  0  0  0  0  0  0  0  0  0  0  0
    2.3661    0.2376    0.0668 C   0  0  0  0  0  0  0  0  0  0  0  0
    3.2161    1.2242    0.5855 C   0  0  0  0  0  0  0  0  0  0  0  0
    4.5889    1.2084    0.3276 C   0  0  0  0  0  0  0  0  0  0  0  0
    5.1631    0.1985   -0.4633 C   0  0  0  0  0  0  0  0  0  0  0  0
    6.6220    0.1717   -0.7308 C   0  0  0  0  0  0  0  0  0  0  0  0
    7.3482   -0.9685   -0.8169 C   0  0  0  0  0  0  0  0  0  0  0  0
    8.8326   -1.0196   -1.1281 C   0  0  1  0  0  0  0  0  0  0  0  0
    9.1067   -1.7356   -2.4561 C   0  0  0  0  0  0  0  0  0  0  0  0
    9.2334   -1.0225   -3.6568 C   0  0  0  0  0  0  0  0  0  0  0  0
    9.4479   -1.6731   -4.8723 C   0  0  0  0  0  0  0  0  0  0  0  0
    9.5377   -3.0675   -4.9109 C   0  0  0  0  0  0  0  0  0  0  0  0
    9.4103   -3.8032   -3.7323 C   0  0  0  0  0  0  0  0  0  0  0  0
    9.1958   -3.1352   -2.5230 C   0  0  0  0  0  0  0  0  0  0  0  0
    9.0253   -4.1081   -1.0656 Cl  0  0  0  0  0  0  0  0  0  0  0  0
    9.3323    0.3469   -1.1141 N   0  0  0  0  0  0  0  0  0  0  0  0
   10.6516    0.6768   -1.2169 N   0  0  0  0  0  0  0  0  0  0  0  0
   10.6074    2.0036   -1.1773 C   0  0  0  0  0  0  0  0  0  0  0  0
   11.8032    2.7066   -1.2609 N   0  0  0  0  0  0  0  0  0  0  0  0
   11.9893    4.0718   -1.2567 C   0  0  0  0  0  0  0  0  0  0  0  0
   11.0870    4.8803   -1.1809 O   0  0  0  0  0  0  0  0  0  0  0  0
   13.4311    4.5429   -1.3553 C   0  0  0  0  0  0  0  0  0  0  0  0
   13.6208    5.9370   -1.3454 C   0  0  0  0  0  0  0  0  0  0  0  0
   14.8886    6.5077   -1.4291 C   0  0  0  0  0  0  0  0  0  0  0  0
   16.0171    5.6859   -1.5267 C   0  0  0  0  0  0  0  0  0  0  0  0
   15.8660    4.2990   -1.5397 C   0  0  0  0  0  0  0  0  0  0  0  0
   14.5874    3.7549   -1.4547 C   0  0  0  0  0  0  0  0  0  0  0  0
   14.5003    2.4027   -1.4724 F   0  0  0  0  0  0  0  0  0  0  0  0
    9.3702    2.5535   -1.0487 N   0  0  0  0  0  0  0  0  0  0  0  0
    8.6027    1.4803   -1.0047 C   0  0  0  0  0  0  0  0  0  0  0  0
    7.2470    1.4174   -0.8430 N   0  0  0  0  0  0  0  0  0  0  0  0
    4.3112   -0.7900   -0.9902 C   0  0  0  0  0  0  0  0  0  0  0  0
    2.9442   -0.7703   -0.7251 C   0  0  0  0  0  0  0  0  0  0  0  0
    0.5998    1.0694    1.0140 H   0  0  0  0  0  0  0  0  0  0  0  0
    0.5475   -0.6960    0.7883 H   0  0  0  0  0  0  0  0  0  0  0  0
    0.3087    0.3790   -0.5997 H   0  0  0  0  0  0  0  0  0  0  0  0
    2.8001    2.0179    1.2123 H   0  0  0  0  0  0  0  0  0  0  0  0
    5.2224    1.9779    0.7761 H   0  0  0  0  0  0  0  0  0  0  0  0
    6.8610   -1.9278   -0.6493 H   0  0  0  0  0  0  0  0  0  0  0  0
    9.3612   -1.5821   -0.3396 H   0  0  0  0  0  0  0  0  0  0  0  0
    9.1755    0.0675   -3.6308 H   0  0  0  0  0  0  0  0  0  0  0  0
    9.5492   -1.0891   -5.7900 H   0  0  0  0  0  0  0  0  0  0  0  0
    9.7085   -3.5868   -5.8570 H   0  0  0  0  0  0  0  0  0  0  0  0
    9.4761   -4.8924   -3.7368 H   0  0  0  0  0  0  0  0  0  0  0  0
   12.6202    2.1102   -1.3354 H   0  0  0  0  0  0  0  0  0  0  0  0
   12.7212    6.5504   -1.2684 H   0  0  0  0  0  0  0  0  0  0  0  0
   14.9991    7.5943   -1.4182 H   0  0  0  0  0  0  0  0  0  0  0  0
   17.0171    6.1216   -1.5928 H   0  0  0  0  0  0  0  0  0  0  0  0
   16.7197    3.6228   -1.6146 H   0  0  0  0  0  0  0  0  0  0  0  0
    6.7138    2.2730   -0.9242 H   0  0  0  0  0  0  0  0  0  0  0  0
    4.7269   -1.5694   -1.6324 H   0  0  0  0  0  0  0  0  0  0  0  0
    2.3065   -1.5494   -1.1532 H   0  0  0  0  0  0  0  0  0  0  0  0
  1  2  1  0
  1 34  1  0
  1 35  1  0
  1 36  1  0
  2  3  2  0
  2 33  1  0
  3  4  1  0
  3 37  1  0
  4  5  2  0
  4 38  1  0
  5  6  1  0
  5 32  1  0
  6  7  2  0
  6 31  1  0
  7  8  1  0
  7 39  1  0
  8  9  1  0
  8 16  1  0
  8 40  1  1
  9 10  2  0
  9 14  1  0
 10 11  1  0
 10 41  1  0
 11 12  2  0
 11 42  1  0
 12 13  1  0
 12 43  1  0
 13 14  2  0
 13 44  1  0
 14 15  1  0
 16 17  1  0
 16 30  1  0
 17 18  2  0
 18 19  1  0
 18 29  1  0
 19 20  1  0
 19 45  1  0
 20 21  2  0
 20 22  1  0
 22 23  2  0
 22 27  1  0
 23 24  1  0
 23 46  1  0
 24 25  2  0
 24 47  1  0
 25 26  1  0
 25 48  1  0
 26 27  2  0
 26 49  1  0
 27 28  1  0
 29 30  2  0
 30 31  1  0
 31 50  1  0
 32 33  2  0
 32 51  1  0
 33 52  1  0
M  END

