
     RDKit          3D

 50 54  0  0  0  0  0  0  0  0999 V2000
    1.2352    0.0498   -0.5684 C   0  0  0  0  0  0  0  0  0  0  0  0
    2.7426    0.0532   -0.6433 C   0  0  0  0  0  0  0  0  0  0  0  0
    3.4593    1.2177   -0.9562 C   0  0  0  0  0  0  0  0  0  0  0  0
    4.8534    1.2202   -1.0306 C   0  0  0  0  0  0  0  0  0  0  0  0
    5.5714    0.0366   -0.8102 C   0  0  0  0  0  0  0  0  0  0  0  0
    6.9928    0.0219   -0.8769 N   0  0  0  0  0  0  0  0  0  0  0  0
    7.8485   -0.5582    0.0840 C   0  0  0  0  0  0  0  0  0  0  0  0
    7.3601   -1.2175    1.1655 O   0  0  0  0  0  0  0  0  0  0  0  0
    9.1333   -0.3795   -0.3390 C   0  0  0  0  0  0  0  0  0  0  0  0
    9.0971    0.3214   -1.5864 C   0  0  0  0  0  0  0  0  0  0  0  0
    7.7788    0.5744   -1.8857 C   0  0  0  0  0  0  0  0  0  0  0  0
    7.1463    1.1914   -2.9117 O   0  0  0  0  0  0  0  0  0  0  0  0
   10.5128    0.5580   -2.0789 C   0  0  1  0  0  0  0  0  0  0  0  0
   10.7801    2.0694   -2.2645 C   0  0  0  0  0  0  0  0  0  0  0  0
   11.3825    2.7193   -1.4402 O   0  0  0  0  0  0  0  0  0  0  0  0
   10.2146    2.7450   -3.4935 C   0  0  0  0  0  0  0  0  0  0  0  0
    9.7319    2.0517   -4.6197 C   0  0  0  0  0  0  0  0  0  0  0  0
    9.2352    2.7422   -5.7300 C   0  0  0  0  0  0  0  0  0  0  0  0
    9.2223    4.1399   -5.7185 C   0  0  0  0  0  0  0  0  0  0  0  0
    8.6023    5.0074   -7.0983 Cl  0  0  0  0  0  0  0  0  0  0  0  0
    9.7060    4.8511   -4.6126 C   0  0  0  0  0  0  0  0  0  0  0  0
   10.2006    4.1513   -3.5158 C   0  0  0  0  0  0  0  0  0  0  0  0
   11.3332   -0.0397   -1.0379 N   0  0  0  0  0  0  0  0  0  0  0  0
   12.4372   -0.9111   -1.4161 C   0  0  0  0  0  0  0  0  0  0  0  0
   12.5236   -1.9361   -0.2720 C   0  0  0  0  0  0  0  0  0  0  0  0
   11.0613   -2.0814    0.1729 C   0  0  0  0  0  0  0  0  0  0  0  0
   10.5483   -0.6318    0.0798 C   0  0  2  0  0  0  0  0  0  0  0  0
    4.8688   -1.1410   -0.5051 C   0  0  0  0  0  0  0  0  0  0  0  0
    3.4775   -1.1217   -0.4137 C   0  0  0  0  0  0  0  0  0  0  0  0
    0.8245    1.0685   -0.6286 H   0  0  0  0  0  0  0  0  0  0  0  0
    0.8790   -0.4046    0.3706 H   0  0  0  0  0  0  0  0  0  0  0  0
    0.7960   -0.5354   -1.3947 H   0  0  0  0  0  0  0  0  0  0  0  0
    2.9171    2.1501   -1.1374 H   0  0  0  0  0  0  0  0  0  0  0  0
    5.3890    2.1389   -1.2695 H   0  0  0  0  0  0  0  0  0  0  0  0
    6.7856   -0.6300    1.6794 H   0  0  0  0  0  0  0  0  0  0  0  0
    7.7946    1.6904   -3.4304 H   0  0  0  0  0  0  0  0  0  0  0  0
   10.7067    0.0507   -3.0479 H   0  0  0  0  0  0  0  0  0  0  0  0
    9.7511    0.9609   -4.6553 H   0  0  0  0  0  0  0  0  0  0  0  0
    8.8675    2.2029   -6.6043 H   0  0  0  0  0  0  0  0  0  0  0  0
    9.6912    5.9423   -4.6228 H   0  0  0  0  0  0  0  0  0  0  0  0
   10.5930    4.6796   -2.6445 H   0  0  0  0  0  0  0  0  0  0  0  0
   13.3846   -0.3576   -1.5478 H   0  0  0  0  0  0  0  0  0  0  0  0
   12.2314   -1.4281   -2.3802 H   0  0  0  0  0  0  0  0  0  0  0  0
   13.1330   -1.5308    0.5530 H   0  0  0  0  0  0  0  0  0  0  0  0
   12.9841   -2.8838   -0.5904 H   0  0  0  0  0  0  0  0  0  0  0  0
   10.9459   -2.5124    1.1789 H   0  0  0  0  0  0  0  0  0  0  0  0
   10.5065   -2.7190   -0.5354 H   0  0  0  0  0  0  0  0  0  0  0  0
   10.7782   -0.1072    1.0288 H   0  0  0  0  0  0  0  0  0  0  0  0
    5.4190   -2.0667   -0.3336 H   0  0  0  0  0  0  0  0  0  0  0  0
    2.9494   -2.0485   -0.1704 H   0  0  0  0  0  0  0  0  0  0  0  0
  1  2  1  0
  1 30  1  0
  1 31  1  0
  1 32  1  0
  2  3  2  0
  2 29  1  0
  3  4  1  0
  3 33  1  0
  4  5  2  0
  4 34  1  0
  5  6  1  0
  5 28  1  0
  6  7  1  0
  6 11  1  0
  7  8  1  0
  7  9  2  0
  8 35  1  0
  9 10  1  0
  9 27  1  0
 10 11  2  0
 10 13  1  0
 11 12  1  0
 12 36  1  0
 13 14  1  0
 13 23  1  0
 13 37  1  6
 14 15  2  0
 14 16  1  0
 16 17  2  0
 16 22  1  0
 17 18  1  0
 17 38  1  0
 18 19  2  0
 18 39  1  0
 19 20  1  0
 19 21  1  0
 21 22  2  0
 21 40  1  0
 22 41  1  0
 23 24  1  0
 23 27  1  0
 24 25  1  0
 24 42  1  0
 24 43  1  0
 25 26  1  0
 25 44  1  0
 25 45  1  0
 26 27  1  0
 26 46  1  0
 26 47  1  0
 27 48  1  1
 28 29  2  0
 28 49  1  0
 29 50  1  0
M  END

