
     RDKit          3D

 27 28  0  0  0  0  0  0  0  0999 V2000
    1.1141    0.0906    2.5038 O   0  0  0  0  0  0  0  0  0  0  0  0
    2.2125    0.5871    2.5501 C   0  0  0  0  0  0  0  0  0  0  0  0
    2.7856    0.9182    3.7056 O   0  0  0  0  0  0  0  0  0  0  0  0
    3.0388    0.7885    1.2611 C   0  0  2  0  0  0  0  0  0  0  0  0
    2.3687    0.3627    0.4991 H   0  0  0  0  0  0  0  0  0  0  0  0
    4.3418   -0.0399    1.2352 C   0  0  0  0  0  0  0  0  0  0  0  0
    4.9697   -0.0292   -0.1655 C   0  0  0  0  0  0  0  0  0  0  0  0
    5.1613    1.3968   -0.6976 C   0  0  0  0  0  0  0  0  0  0  0  0
    3.8534    2.1973   -0.6534 C   0  0  0  0  0  0  0  0  0  0  0  0
    3.2437    2.2429    0.7641 C   0  0  2  0  0  0  0  0  0  0  0  0
    2.2549    2.7283    0.7203 H   0  0  0  0  0  0  0  0  0  0  0  0
    4.0848    3.0986    1.6367 N   0  0  0  0  0  0  0  0  0  0  0  0
    4.4747    4.3765    1.4134 C   0  0  0  0  0  0  0  0  0  0  0  0
    5.2056    4.8281    2.4171 N   0  0  0  0  0  0  0  0  0  0  0  0
    5.2417    3.7747    3.2633 C   0  0  0  0  0  0  0  0  0  0  0  0
    4.5787    2.7096    2.8321 N   0  0  0  0  0  0  0  0  0  0  0  0
    3.5995    1.4592    3.5395 H   0  0  0  0  0  0  0  0  0  0  0  0
    4.1085   -1.0737    1.5368 H   0  0  0  0  0  0  0  0  0  0  0  0
    5.0583    0.3508    1.9741 H   0  0  0  0  0  0  0  0  0  0  0  0
    4.3159   -0.5889   -0.8588 H   0  0  0  0  0  0  0  0  0  0  0  0
    5.9343   -0.5624   -0.1504 H   0  0  0  0  0  0  0  0  0  0  0  0
    5.5433    1.3735   -1.7312 H   0  0  0  0  0  0  0  0  0  0  0  0
    5.9297    1.9160   -0.0976 H   0  0  0  0  0  0  0  0  0  0  0  0
    3.1040    1.7308   -1.3147 H   0  0  0  0  0  0  0  0  0  0  0  0
    4.0048    3.2179   -1.0393 H   0  0  0  0  0  0  0  0  0  0  0  0
    4.2022    4.9334    0.5179 H   0  0  0  0  0  0  0  0  0  0  0  0
    5.7604    3.7779    4.2219 H   0  0  0  0  0  0  0  0  0  0  0  0
  1  2  2  0
  2  3  1  0
  2  4  1  0
  3 17  1  0
  4  5  1  6
  4  6  1  0
  4 10  1  0
  6  7  1  0
  6 18  1  0
  6 19  1  0
  7  8  1  0
  7 20  1  0
  7 21  1  0
  8  9  1  0
  8 22  1  0
  8 23  1  0
  9 10  1  0
  9 24  1  0
  9 25  1  0
 10 11  1  6
 10 12  1  0
 12 13  1  0
 12 16  1  0
 13 14  2  0
 13 26  1  0
 14 15  1  0
 15 16  2  0
 15 27  1  0
M  END

