
     RDKit          3D

106113  0  0  0  0  0  0  0  0999 V2000
    2.4988   -0.2767   11.2041 C   0  0  0  0  0  0  0  0  0  0  0  0
    3.4419    0.7932   10.6518 C   0  0  0  0  0  0  0  0  0  0  0  0
    4.8208    0.2530   10.2601 C   0  0  0  0  0  0  0  0  0  0  0  0
    5.7717    1.3181    9.7062 C   0  0  0  0  0  0  0  0  0  0  0  0
    7.1501    0.7776    9.3146 C   0  0  0  0  0  0  0  0  0  0  0  0
    8.1010    1.8432    8.7614 C   0  0  0  0  0  0  0  0  0  0  0  0
    9.4793    1.3023    8.3696 C   0  0  0  0  0  0  0  0  0  0  0  0
   10.4301    2.3681    7.8167 C   0  0  0  0  0  0  0  0  0  0  0  0
   11.8081    1.8265    7.4252 C   0  0  0  0  0  0  0  0  0  0  0  0
   12.7572    2.8930    6.8699 C   0  0  0  0  0  0  0  0  0  0  0  0
   14.1344    2.3408    6.4928 C   0  0  0  0  0  0  0  0  0  0  0  0
   15.0981    3.3678    5.8862 C   0  0  0  0  0  0  0  0  0  0  0  0
   15.4466    4.4632    6.7827 N   0  0  0  0  0  0  0  0  0  0  0  0
   16.3877    4.3601    7.8131 C   0  0  0  0  0  0  0  0  0  0  0  0
   16.9995    3.3506    8.0881 O   0  0  0  0  0  0  0  0  0  0  0  0
   16.4531    5.7185    8.4480 C   0  0  0  0  0  0  0  0  0  0  0  0
   15.5715    6.5416    7.7953 C   0  0  0  0  0  0  0  0  0  0  0  0
   15.3184    7.8767    8.2283 C   0  0  0  0  0  0  0  0  0  0  0  0
   14.3287    8.6787    7.6131 C   0  0  0  0  0  0  0  0  0  0  0  0
   14.0180    9.9284    8.1280 C   0  0  0  0  0  0  0  0  0  0  0  0
   14.5976   10.3336    9.3315 C   0  0  0  0  0  0  0  0  0  0  0  0
   14.4428   11.5235   10.1990 C   0  0  0  0  0  0  0  0  0  0  0  0
   13.8629   11.2469   11.4392 C   0  0  0  0  0  0  0  0  0  0  0  0
   12.4674   10.8702   11.6234 C   0  0  0  0  0  0  0  0  0  0  0  0
   12.0142   10.0744   12.7023 C   0  0  0  0  0  0  0  0  0  0  0  0
   10.6759    9.7254   12.8195 C   0  0  0  0  0  0  0  0  0  0  0  0
    9.7376   10.1637   11.8613 C   0  0  0  0  0  0  0  0  0  0  0  0
    8.3544    9.8045   11.9860 C   0  0  0  0  0  0  0  0  0  0  0  0
    7.2349    9.5109   12.0868 N   0  0  0  0  0  0  0  0  0  0  0  0
   10.1705   10.9728   10.7930 C   0  0  0  0  0  0  0  0  0  0  0  0
   11.5088   11.3330   10.6915 C   0  0  0  0  0  0  0  0  0  0  0  0
   14.9581   10.6609   12.2274 C   0  0  0  0  0  0  0  0  0  0  0  0
   14.9611   10.7559   13.5719 O   0  0  0  0  0  0  0  0  0  0  0  0
   15.9056   10.0099   14.3221 C   0  0  0  0  0  0  0  0  0  0  0  0
   15.7503    9.7965   11.4777 C   0  0  0  0  0  0  0  0  0  0  0  0
   15.5333    9.5042   10.0399 C   0  0  0  0  0  0  0  0  0  0  0  0
   16.0584    8.3429    9.3799 C   0  0  0  0  0  0  0  0  0  0  0  0
   17.2194    7.5758    9.8346 C   0  0  0  0  0  0  0  0  0  0  0  0
   17.3214    6.1985    9.4732 C   0  0  0  0  0  0  0  0  0  0  0  0
   18.3001    5.3470   10.0768 C   0  0  0  0  0  0  0  0  0  0  0  0
   19.2173    5.8611   10.9500 C   0  0  0  0  0  0  0  0  0  0  0  0
   19.2956    7.2692   11.1731 C   0  0  0  0  0  0  0  0  0  0  0  0
   20.3656    7.8239   11.9181 C   0  0  0  0  0  0  0  0  0  0  0  0
   20.5902    9.1879   12.0260 C   0  0  0  0  0  0  0  0  0  0  0  0
   21.7333    9.6957   12.8308 C   0  0  0  0  0  0  0  0  0  0  0  0
   22.5885   10.7149   12.3661 C   0  0  0  0  0  0  0  0  0  0  0  0
   23.6798   11.1361   13.1198 C   0  0  0  0  0  0  0  0  0  0  0  0
   23.9455   10.5535   14.3735 C   0  0  0  0  0  0  0  0  0  0  0  0
   25.0668   10.9922   15.1561 C   0  0  0  0  0  0  0  0  0  0  0  0
   25.9733   11.3471   15.7894 N   0  0  0  0  0  0  0  0  0  0  0  0
   23.0974    9.5386   14.8519 C   0  0  0  0  0  0  0  0  0  0  0  0
   22.0115    9.1212   14.0870 C   0  0  0  0  0  0  0  0  0  0  0  0
   19.6889   10.0573   11.3251 C   0  0  0  0  0  0  0  0  0  0  0  0
   19.9666   11.3823   11.3923 O   0  0  0  0  0  0  0  0  0  0  0  0
   19.1202   12.3152   10.7523 C   0  0  0  0  0  0  0  0  0  0  0  0
   18.6010    9.5407   10.6361 C   0  0  0  0  0  0  0  0  0  0  0  0
   18.3376    8.1450   10.5704 C   0  0  0  0  0  0  0  0  0  0  0  0
   14.9209    5.7579    6.6919 C   0  0  0  0  0  0  0  0  0  0  0  0
   14.1129    6.1213    5.8658 O   0  0  0  0  0  0  0  0  0  0  0  0
    1.5183    0.1469   11.4748 H   0  0  0  0  0  0  0  0  0  0  0  0
    2.9165   -0.7517   12.1079 H   0  0  0  0  0  0  0  0  0  0  0  0
    2.3228   -1.0766   10.4651 H   0  0  0  0  0  0  0  0  0  0  0  0
    3.5667    1.5970   11.4002 H   0  0  0  0  0  0  0  0  0  0  0  0
    2.9781    1.2751    9.7717 H   0  0  0  0  0  0  0  0  0  0  0  0
    4.6971   -0.5514    9.5106 H   0  0  0  0  0  0  0  0  0  0  0  0
    5.2860   -0.2295   11.1403 H   0  0  0  0  0  0  0  0  0  0  0  0
    5.8949    2.1221   10.4557 H   0  0  0  0  0  0  0  0  0  0  0  0
    5.3061    1.8005    8.8265 H   0  0  0  0  0  0  0  0  0  0  0  0
    7.0272   -0.0260    8.5646 H   0  0  0  0  0  0  0  0  0  0  0  0
    7.6158    0.2949   10.1942 H   0  0  0  0  0  0  0  0  0  0  0  0
    8.2242    2.6467    9.5114 H   0  0  0  0  0  0  0  0  0  0  0  0
    7.6355    2.3262    7.8821 H   0  0  0  0  0  0  0  0  0  0  0  0
    9.3560    0.4992    7.6191 H   0  0  0  0  0  0  0  0  0  0  0  0
    9.9449    0.8190    9.2488 H   0  0  0  0  0  0  0  0  0  0  0  0
   10.5538    3.1713    8.5668 H   0  0  0  0  0  0  0  0  0  0  0  0
    9.9653    2.8515    6.9374 H   0  0  0  0  0  0  0  0  0  0  0  0
   11.6844    1.0222    6.6760 H   0  0  0  0  0  0  0  0  0  0  0  0
   12.2752    1.3448    8.3044 H   0  0  0  0  0  0  0  0  0  0  0  0
   12.8730    3.6963    7.6196 H   0  0  0  0  0  0  0  0  0  0  0  0
   12.2986    3.3743    5.9873 H   0  0  0  0  0  0  0  0  0  0  0  0
   14.0166    1.5300    5.7517 H   0  0  0  0  0  0  0  0  0  0  0  0
   14.6139    1.8803    7.3736 H   0  0  0  0  0  0  0  0  0  0  0  0
   14.6578    3.8320    4.9912 H   0  0  0  0  0  0  0  0  0  0  0  0
   16.0345    2.8684    5.5941 H   0  0  0  0  0  0  0  0  0  0  0  0
   13.8169    8.2849    6.7349 H   0  0  0  0  0  0  0  0  0  0  0  0
   13.2899   10.5735    7.6325 H   0  0  0  0  0  0  0  0  0  0  0  0
   15.4258   12.0035   10.3144 H   0  0  0  0  0  0  0  0  0  0  0  0
   12.7267    9.7302   13.4519 H   0  0  0  0  0  0  0  0  0  0  0  0
   10.3407    9.1067   13.6542 H   0  0  0  0  0  0  0  0  0  0  0  0
    9.4453   11.3308   10.0597 H   0  0  0  0  0  0  0  0  0  0  0  0
   11.8342   12.0064    9.8956 H   0  0  0  0  0  0  0  0  0  0  0  0
   16.9381   10.2632   14.0272 H   0  0  0  0  0  0  0  0  0  0  0  0
   15.7537    8.9233   14.1971 H   0  0  0  0  0  0  0  0  0  0  0  0
   15.7512   10.2794   15.3747 H   0  0  0  0  0  0  0  0  0  0  0  0
   16.4518    9.1506   12.0022 H   0  0  0  0  0  0  0  0  0  0  0  0
   18.2933    4.2897    9.8121 H   0  0  0  0  0  0  0  0  0  0  0  0
   19.9510    5.2093   11.4313 H   0  0  0  0  0  0  0  0  0  0  0  0
   21.0742    7.1348   12.3838 H   0  0  0  0  0  0  0  0  0  0  0  0
   22.3987   11.1754   11.3976 H   0  0  0  0  0  0  0  0  0  0  0  0
   24.3381   11.9198   12.7402 H   0  0  0  0  0  0  0  0  0  0  0  0
   23.2911    9.0863   15.8264 H   0  0  0  0  0  0  0  0  0  0  0  0
   21.3515    8.3448   14.4798 H   0  0  0  0  0  0  0  0  0  0  0  0
   19.5363   13.3082   10.9669 H   0  0  0  0  0  0  0  0  0  0  0  0
   18.0893   12.2630   11.1435 H   0  0  0  0  0  0  0  0  0  0  0  0
   19.0966   12.1628    9.6589 H   0  0  0  0  0  0  0  0  0  0  0  0
   17.9422   10.2198   10.1038 H   0  0  0  0  0  0  0  0  0  0  0  0
  1  2  1  0
  1 60  1  0
  1 61  1  0
  1 62  1  0
  2  3  1  0
  2 63  1  0
  2 64  1  0
  3  4  1  0
  3 65  1  0
  3 66  1  0
  4  5  1  0
  4 67  1  0
  4 68  1  0
  5  6  1  0
  5 69  1  0
  5 70  1  0
  6  7  1  0
  6 71  1  0
  6 72  1  0
  7  8  1  0
  7 73  1  0
  7 74  1  0
  8  9  1  0
  8 75  1  0
  8 76  1  0
  9 10  1  0
  9 77  1  0
  9 78  1  0
 10 11  1  0
 10 79  1  0
 10 80  1  0
 11 12  1  0
 11 81  1  0
 11 82  1  0
 12 13  1  0
 12 83  1  0
 12 84  1  0
 13 14  1  0
 13 58  1  0
 14 15  2  0
 14 16  1  0
 16 17  2  0
 16 39  1  0
 17 18  1  0
 17 58  1  0
 18 19  2  0
 18 37  1  0
 19 20  1  0
 19 85  1  0
 20 21  2  0
 20 86  1  0
 21 22  1  0
 21 36  1  0
 22 23  2  0
 22 87  1  0
 23 24  1  0
 23 32  1  0
 24 25  2  0
 24 31  1  0
 25 26  1  0
 25 88  1  0
 26 27  2  0
 26 89  1  0
 27 28  1  0
 27 30  1  0
 28 29  3  0
 30 31  2  0
 30 90  1  0
 31 91  1  0
 32 33  1  0
 32 35  2  0
 33 34  1  0
 34 92  1  0
 34 93  1  0
 34 94  1  0
 35 36  1  0
 35 95  1  0
 36 37  2  0
 37 38  1  0
 38 39  2  0
 38 57  1  0
 39 40  1  0
 40 41  2  0
 40 96  1  0
 41 42  1  0
 41 97  1  0
 42 43  1  0
 42 57  2  0
 43 44  2  0
 43 98  1  0
 44 45  1  0
 44 53  1  0
 45 46  2  0
 45 52  1  0
 46 47  1  0
 46 99  1  0
 47 48  2  0
 47100  1  0
 48 49  1  0
 48 51  1  0
 49 50  3  0
 51 52  2  0
 51101  1  0
 52102  1  0
 53 54  1  0
 53 56  2  0
 54 55  1  0
 55103  1  0
 55104  1  0
 55105  1  0
 56 57  1  0
 56106  1  0
 58 59  2  0
M  END

