
     RDKit          3D

 41 42  0  0  0  0  0  0  0  0999 V2000
    2.8662    2.9538    1.4905 C   0  0  0  0  0  0  0  0  0  0  0  0
    2.9189    1.8314    0.4484 C   0  0  1  0  0  0  0  0  0  0  0  0
    3.9476    2.1529   -0.6453 C   0  0  0  0  0  0  0  0  0  0  0  0
    3.2398    0.4560    1.1017 C   0  0  1  0  0  0  0  0  0  0  0  0
    2.5916    0.2250    2.4011 N   0  0  0  0  0  0  0  0  0  0  0  0
    1.2660   -0.1007    2.6357 C   0  0  0  0  0  0  0  0  0  0  0  0
    0.2044    0.1993    1.7570 C   0  0  0  0  0  0  0  0  0  0  0  0
   -1.1109   -0.1313    2.0829 C   0  0  0  0  0  0  0  0  0  0  0  0
   -1.4198   -0.7659    3.2892 C   0  0  0  0  0  0  0  0  0  0  0  0
   -0.3840   -1.0647    4.1748 C   0  0  0  0  0  0  0  0  0  0  0  0
    0.9410   -0.7468    3.8629 C   0  0  0  0  0  0  0  0  0  0  0  0
    2.0231   -1.0676    4.7504 N   0  0  0  0  0  0  0  0  0  0  0  0
    2.1785   -0.2445    6.2504 S   0  0  1  0  0  0  0  0  0  0  0  0
    3.2031    1.1654    5.8128 C   0  0  0  0  0  0  0  0  0  0  0  0
    0.8864    0.2788    6.6948 O   0  0  0  0  0  0  0  0  0  0  0  0
    2.9587   -1.1574    7.0875 O   0  0  0  0  0  0  0  0  0  0  0  0
    3.0863   -0.7190    0.1478 C   0  0  0  0  0  0  0  0  0  0  0  0
    2.2250   -0.9181   -0.9063 C   0  0  0  0  0  0  0  0  0  0  0  0
    2.3549   -2.2046   -1.5156 C   0  0  0  0  0  0  0  0  0  0  0  0
    3.3147   -2.9788   -0.9172 C   0  0  0  0  0  0  0  0  0  0  0  0
    4.0730   -2.1407    0.3912 S   0  0  0  0  0  0  0  0  0  0  0  0
    2.6907    3.9237    0.9987 H   0  0  0  0  0  0  0  0  0  0  0  0
    3.8200    3.0281    2.0408 H   0  0  0  0  0  0  0  0  0  0  0  0
    2.0654    2.7952    2.2263 H   0  0  0  0  0  0  0  0  0  0  0  0
    1.9282    1.7761   -0.0335 H   0  0  0  0  0  0  0  0  0  0  0  0
    4.9559    2.2716   -0.2123 H   0  0  0  0  0  0  0  0  0  0  0  0
    3.6931    3.0971   -1.1520 H   0  0  0  0  0  0  0  0  0  0  0  0
    4.0013    1.3634   -1.4091 H   0  0  0  0  0  0  0  0  0  0  0  0
    4.3103    0.5121    1.3648 H   0  0  0  0  0  0  0  0  0  0  0  0
    3.1926   -0.2342    3.0790 H   0  0  0  0  0  0  0  0  0  0  0  0
    0.4080    0.6949    0.8106 H   0  0  0  0  0  0  0  0  0  0  0  0
   -1.9081    0.1156    1.3766 H   0  0  0  0  0  0  0  0  0  0  0  0
   -2.4519   -1.0178    3.5408 H   0  0  0  0  0  0  0  0  0  0  0  0
   -0.5922   -1.5397    5.1353 H   0  0  0  0  0  0  0  0  0  0  0  0
    2.1348   -2.0588    4.9714 H   0  0  0  0  0  0  0  0  0  0  0  0
    2.7174    1.7210    5.0005 H   0  0  0  0  0  0  0  0  0  0  0  0
    4.1922    0.7974    5.5141 H   0  0  0  0  0  0  0  0  0  0  0  0
    3.2709    1.7824    6.7190 H   0  0  0  0  0  0  0  0  0  0  0  0
    1.5152   -0.1662   -1.2526 H   0  0  0  0  0  0  0  0  0  0  0  0
    1.7570   -2.5381   -2.3653 H   0  0  0  0  0  0  0  0  0  0  0  0
    3.6244   -3.9908   -1.1746 H   0  0  0  0  0  0  0  0  0  0  0  0
  1  2  1  0
  1 22  1  0
  1 23  1  0
  1 24  1  0
  2  3  1  0
  2  4  1  0
  2 25  1  6
  3 26  1  0
  3 27  1  0
  3 28  1  0
  4  5  1  0
  4 17  1  0
  4 29  1  1
  5  6  1  0
  5 30  1  0
  6  7  2  0
  6 11  1  0
  7  8  1  0
  7 31  1  0
  8  9  2  0
  8 32  1  0
  9 10  1  0
  9 33  1  0
 10 11  2  0
 10 34  1  0
 11 12  1  0
 13 12  1  6
 12 35  1  0
 13 14  1  0
 13 15  2  0
 13 16  2  0
 14 36  1  0
 14 37  1  0
 14 38  1  0
 17 18  2  0
 17 21  1  0
 18 19  1  0
 18 39  1  0
 19 20  2  0
 19 40  1  0
 20 21  1  0
 20 41  1  0
M  END

