
     RDKit          3D

 25 24  0  0  0  0  0  0  0  0999 V2000
    0.6865    0.2820    0.8704 C   0  0  0  0  0  0  0  0  0  0  0  0
    2.1847    0.3042    1.1262 C   0  0  1  0  0  0  0  0  0  0  0  0
    2.8563   -0.8196    0.5590 O   0  0  0  0  0  0  0  0  0  0  0  0
    2.8555    1.6138    0.6658 C   0  0  0  0  0  0  0  0  0  0  0  0
    2.2026    2.5334    0.2160 O   0  0  0  0  0  0  0  0  0  0  0  0
    4.3909    1.6596    0.7176 C   0  0  1  0  0  0  0  0  0  0  0  0
    4.9038    1.2873   -0.6079 N   0  0  0  0  0  0  0  0  0  0  0  0
    4.9158    3.0387    1.1661 C   0  0  1  0  0  0  0  0  0  0  0  0
    4.4104    3.3933    2.5710 C   0  0  0  0  0  0  0  0  0  0  0  0
    6.4451    3.1025    1.0970 C   0  0  0  0  0  0  0  0  0  0  0  0
    0.2546   -0.6628    1.2325 H   0  0  0  0  0  0  0  0  0  0  0  0
    0.4742    0.3858   -0.2068 H   0  0  0  0  0  0  0  0  0  0  0  0
    0.1888    1.1219    1.3755 H   0  0  0  0  0  0  0  0  0  0  0  0
    2.3780    0.2311    2.2132 H   0  0  0  0  0  0  0  0  0  0  0  0
    2.5185   -0.9338   -0.3404 H   0  0  0  0  0  0  0  0  0  0  0  0
    4.7498    0.8933    1.4249 H   0  0  0  0  0  0  0  0  0  0  0  0
    4.4599    1.8579   -1.3297 H   0  0  0  0  0  0  0  0  0  0  0  0
    4.6820    0.3119   -0.8026 H   0  0  0  0  0  0  0  0  0  0  0  0
    4.4959    3.7785    0.4607 H   0  0  0  0  0  0  0  0  0  0  0  0
    4.7679    2.6620    3.3172 H   0  0  0  0  0  0  0  0  0  0  0  0
    3.3110    3.4266    2.6218 H   0  0  0  0  0  0  0  0  0  0  0  0
    4.7812    4.3835    2.8801 H   0  0  0  0  0  0  0  0  0  0  0  0
    6.9013    2.4018    1.8181 H   0  0  0  0  0  0  0  0  0  0  0  0
    6.8045    4.1146    1.3442 H   0  0  0  0  0  0  0  0  0  0  0  0
    6.8095    2.8324    0.0968 H   0  0  0  0  0  0  0  0  0  0  0  0
  1  2  1  0
  1 11  1  0
  1 12  1  0
  1 13  1  0
  2  3  1  0
  2  4  1  0
  2 14  1  1
  3 15  1  0
  4  5  2  0
  4  6  1  0
  6  7  1  0
  6  8  1  0
  6 16  1  1
  7 17  1  0
  7 18  1  0
  8  9  1  0
  8 10  1  0
  8 19  1  6
  9 20  1  0
  9 21  1  0
  9 22  1  0
 10 23  1  0
 10 24  1  0
 10 25  1  0
M  END

