
     RDKit          3D

 42 44  0  0  0  0  0  0  0  0999 V2000
    5.4760    3.1075    5.3488 Cl  0  0  0  0  0  0  0  0  0  0  0  0
    6.0423    2.3983    3.8578 C   0  0  0  0  0  0  0  0  0  0  0  0
    7.3142    1.8233    3.7916 C   0  0  0  0  0  0  0  0  0  0  0  0
    7.7446    1.2694    2.5925 C   0  0  0  0  0  0  0  0  0  0  0  0
    6.9479    1.2560    1.4219 C   0  0  0  0  0  0  0  0  0  0  0  0
    7.5110    0.6451    0.2167 C   0  0  0  0  0  0  0  0  0  0  0  0
    7.2416    0.6713   -1.1341 C   0  0  0  0  0  0  0  0  0  0  0  0
    8.2430   -0.1248   -1.7709 C   0  0  0  0  0  0  0  0  0  0  0  0
    9.0690   -0.5868   -0.7815 C   0  0  0  0  0  0  0  0  0  0  0  0
   10.2704   -1.4876   -0.7532 C   0  0  0  0  0  0  0  0  0  0  0  0
   10.1078   -2.7578   -0.0567 N   0  0  0  0  0  0  0  0  0  0  0  0
    9.1290   -3.6704   -0.6357 C   0  0  0  0  0  0  0  0  0  0  0  0
    9.1198   -5.0327    0.0796 C   0  0  1  0  0  0  0  0  0  0  0  0
    8.6617   -4.9655    1.5538 C   0  0  0  0  0  0  0  0  0  0  0  0
    7.1487   -4.7707    1.6919 C   0  0  0  0  0  0  0  0  0  0  0  0
    6.4511   -5.8343    0.9800 N   0  0  0  0  0  0  0  0  0  0  0  0
    6.7475   -5.8497   -0.4469 C   0  0  0  0  0  0  0  0  0  0  0  0
    8.2494   -6.0692   -0.6631 C   0  0  0  0  0  0  0  0  0  0  0  0
    8.6308   -0.1230    0.4204 O   0  0  0  0  0  0  0  0  0  0  0  0
    5.6645    1.8402    1.5367 C   0  0  0  0  0  0  0  0  0  0  0  0
    4.4066    1.8842    0.0972 Br  0  0  0  0  0  0  0  0  0  0  0  0
    5.2170    2.4069    2.7340 C   0  0  0  0  0  0  0  0  0  0  0  0
    7.9595    1.8174    4.6712 H   0  0  0  0  0  0  0  0  0  0  0  0
    8.7398    0.8284    2.5384 H   0  0  0  0  0  0  0  0  0  0  0  0
    6.4329    1.2061   -1.6191 H   0  0  0  0  0  0  0  0  0  0  0  0
    8.3390   -0.3285   -2.8354 H   0  0  0  0  0  0  0  0  0  0  0  0
   11.1102   -0.9469   -0.2817 H   0  0  0  0  0  0  0  0  0  0  0  0
   10.5676   -1.6839   -1.7963 H   0  0  0  0  0  0  0  0  0  0  0  0
    9.8888   -2.5776    0.9219 H   0  0  0  0  0  0  0  0  0  0  0  0
    9.4190   -3.8397   -1.6886 H   0  0  0  0  0  0  0  0  0  0  0  0
    8.1051   -3.2416   -0.6731 H   0  0  0  0  0  0  0  0  0  0  0  0
   10.1664   -5.3821    0.0667 H   0  0  0  0  0  0  0  0  0  0  0  0
    9.1987   -4.1742    2.1042 H   0  0  0  0  0  0  0  0  0  0  0  0
    8.9279   -5.9173    2.0436 H   0  0  0  0  0  0  0  0  0  0  0  0
    6.8691   -3.7536    1.3301 H   0  0  0  0  0  0  0  0  0  0  0  0
    6.8658   -4.8113    2.7568 H   0  0  0  0  0  0  0  0  0  0  0  0
    5.4474   -5.7731    1.1373 H   0  0  0  0  0  0  0  0  0  0  0  0
    6.4298   -4.9137   -0.9621 H   0  0  0  0  0  0  0  0  0  0  0  0
    6.1831   -6.6719   -0.9175 H   0  0  0  0  0  0  0  0  0  0  0  0
    8.4783   -6.0613   -1.7426 H   0  0  0  0  0  0  0  0  0  0  0  0
    8.5026   -7.0744   -0.2863 H   0  0  0  0  0  0  0  0  0  0  0  0
    4.2222    2.8479    2.7906 H   0  0  0  0  0  0  0  0  0  0  0  0
  1  2  1  0
  2  3  2  0
  2 22  1  0
  3  4  1  0
  3 23  1  0
  4  5  2  0
  4 24  1  0
  5  6  1  0
  5 20  1  0
  6  7  2  0
  6 19  1  0
  7  8  1  0
  7 25  1  0
  8  9  2  0
  8 26  1  0
  9 10  1  0
  9 19  1  0
 10 11  1  0
 10 27  1  0
 10 28  1  0
 11 12  1  0
 11 29  1  0
 12 13  1  0
 12 30  1  0
 12 31  1  0
 13 14  1  0
 13 18  1  0
 13 32  1  1
 14 15  1  0
 14 33  1  0
 14 34  1  0
 15 16  1  0
 15 35  1  0
 15 36  1  0
 16 17  1  0
 16 37  1  0
 17 18  1  0
 17 38  1  0
 17 39  1  0
 18 40  1  0
 18 41  1  0
 20 21  1  0
 20 22  2  0
 22 42  1  0
M  END

