
     RDKit          3D

 34 36  0  0  0  0  0  0  0  0999 V2000
    3.1701    4.2405    1.3265 C   0  0  0  0  0  0  0  0  0  0  0  0
    3.8071    3.1369    0.6376 N   0  0  0  0  0  0  0  0  0  0  0  0
    4.6730    2.3257    1.4785 C   0  0  0  0  0  0  0  0  0  0  0  0
    5.3057    1.2078    0.7016 C   0  0  0  0  0  0  0  0  0  0  0  0
    4.6929    0.3575   -0.2556 C   0  0  0  0  0  0  0  0  0  0  0  0
    5.5495   -0.5334   -0.7478 N   0  0  0  0  0  0  0  0  0  0  0  0
    6.7148   -0.2837   -0.1312 N   0  0  0  0  0  0  0  0  0  0  0  0
    7.8878   -1.0989   -0.4044 C   0  0  0  0  0  0  0  0  0  0  0  0
    7.7948   -2.5188    0.1583 C   0  0  2  0  0  0  0  0  0  0  0  0
    9.0681   -3.4316   -0.0662 C   0  0  0  0  0  0  0  0  0  0  0  0
    8.1382   -4.3986   -0.7811 C   0  0  0  0  0  0  0  0  0  0  0  0
    8.0741   -5.6234   -1.4364 C   0  0  0  0  0  0  0  0  0  0  0  0
    6.8112   -5.9857   -1.9371 C   0  0  0  0  0  0  0  0  0  0  0  0
    5.6891   -5.1531   -1.7854 C   0  0  0  0  0  0  0  0  0  0  0  0
    5.7668   -3.9180   -1.1185 C   0  0  0  0  0  0  0  0  0  0  0  0
    7.0194   -3.5798   -0.6190 C   0  0  0  0  0  0  0  0  0  0  0  0
    6.6163    0.7550    0.7463 C   0  0  0  0  0  0  0  0  0  0  0  0
    2.5645    4.8277    0.6185 H   0  0  0  0  0  0  0  0  0  0  0  0
    3.8741    4.9392    1.8345 H   0  0  0  0  0  0  0  0  0  0  0  0
    2.4858    3.8550    2.1021 H   0  0  0  0  0  0  0  0  0  0  0  0
    4.3302    3.4699   -0.1713 H   0  0  0  0  0  0  0  0  0  0  0  0
    4.0484    1.9111    2.2933 H   0  0  0  0  0  0  0  0  0  0  0  0
    5.4710    2.9135    1.9904 H   0  0  0  0  0  0  0  0  0  0  0  0
    3.6611    0.3839   -0.6044 H   0  0  0  0  0  0  0  0  0  0  0  0
    8.7480   -0.5801    0.0466 H   0  0  0  0  0  0  0  0  0  0  0  0
    8.0458   -1.1306   -1.4944 H   0  0  0  0  0  0  0  0  0  0  0  0
    7.5060   -2.4611    1.2220 H   0  0  0  0  0  0  0  0  0  0  0  0
    9.5446   -3.7977    0.8579 H   0  0  0  0  0  0  0  0  0  0  0  0
    9.8456   -2.9740   -0.7016 H   0  0  0  0  0  0  0  0  0  0  0  0
    8.9399   -6.2778   -1.5695 H   0  0  0  0  0  0  0  0  0  0  0  0
    6.6961   -6.9369   -2.4644 H   0  0  0  0  0  0  0  0  0  0  0  0
    4.7317   -5.4774   -2.2028 H   0  0  0  0  0  0  0  0  0  0  0  0
    4.9015   -3.2606   -1.0189 H   0  0  0  0  0  0  0  0  0  0  0  0
    7.4732    1.0964    1.3248 H   0  0  0  0  0  0  0  0  0  0  0  0
  1  2  1  0
  1 18  1  0
  1 19  1  0
  1 20  1  0
  2  3  1  0
  2 21  1  0
  3  4  1  0
  3 22  1  0
  3 23  1  0
  4  5  1  0
  4 17  2  0
  5  6  2  0
  5 24  1  0
  6  7  1  0
  7  8  1  0
  7 17  1  0
  8  9  1  0
  8 25  1  0
  8 26  1  0
  9 10  1  0
  9 16  1  0
  9 27  1  1
 10 11  1  0
 10 28  1  0
 10 29  1  0
 11 12  2  0
 11 16  1  0
 12 13  1  0
 12 30  1  0
 13 14  2  0
 13 31  1  0
 14 15  1  0
 14 32  1  0
 15 16  2  0
 15 33  1  0
 17 34  1  0
M  END

