
     RDKit          3D

 57 58  0  0  0  0  0  0  0  0999 V2000
    0.7660    1.9552   -0.4814 C   0  0  0  0  0  0  0  0  0  0  0  0
    2.1158    2.1133   -1.1737 C   0  0  0  0  0  0  0  0  0  0  0  0
    3.1031    1.2237   -0.5931 N   0  0  0  0  0  0  0  0  0  0  0  0
    4.3397    0.9078   -1.1306 C   0  0  0  0  0  0  0  0  0  0  0  0
    5.1926    0.1119   -0.5796 N   0  0  0  0  0  0  0  0  0  0  0  0
    4.8390   -0.5480    0.6498 C   0  0  0  0  0  0  0  0  0  0  0  0
    5.9893   -1.4455    1.1596 C   0  0  1  0  0  0  0  0  0  0  0  0
    7.2457   -0.6272    1.4941 C   0  0  0  0  0  0  0  0  0  0  0  0
    5.5410   -2.3446    2.2890 C   0  0  0  0  0  0  0  0  0  0  0  0
    5.3376   -3.7683    2.2173 C   0  0  0  0  0  0  0  0  0  0  0  0
    5.5302   -4.6710    1.0384 C   0  0  0  0  0  0  0  0  0  0  0  0
    4.9370   -4.2619    3.3657 N   0  0  0  0  0  0  0  0  0  0  0  0
    4.8592   -3.1888    4.2312 O   0  0  0  0  0  0  0  0  0  0  0  0
    5.2159   -2.0556    3.5917 C   0  0  0  0  0  0  0  0  0  0  0  0
    5.1907   -0.8166    4.4223 C   0  0  0  0  0  0  0  0  0  0  0  0
    4.6024    1.4682   -2.3674 N   0  0  0  0  0  0  0  0  0  0  0  0
    5.8619    1.2256   -3.0577 C   0  0  0  0  0  0  0  0  0  0  0  0
    5.8425   -0.0479   -3.9210 C   0  0  1  0  0  0  0  0  0  0  0  0
    4.7635   -0.0147   -5.0287 C   0  0  0  0  0  0  0  0  0  0  0  0
    5.3970   -0.8070   -6.1753 C   0  0  0  0  0  0  0  0  0  0  0  0
    6.8685   -0.3891   -6.0600 C   0  0  0  0  0  0  0  0  0  0  0  0
    7.1302   -0.2453   -4.6195 N   0  0  0  0  0  0  0  0  0  0  0  0
    8.0057   -1.2620   -4.0467 C   0  0  0  0  0  0  0  0  0  0  0  0
    8.5375   -0.9101   -2.6595 C   0  0  0  0  0  0  0  0  0  0  0  0
    0.0177    2.6252   -0.9310 H   0  0  0  0  0  0  0  0  0  0  0  0
    0.8360    2.2083    0.5899 H   0  0  0  0  0  0  0  0  0  0  0  0
    0.4012    0.9195   -0.5652 H   0  0  0  0  0  0  0  0  0  0  0  0
    2.4291    3.1782   -1.1197 H   0  0  0  0  0  0  0  0  0  0  0  0
    2.0098    1.8697   -2.2444 H   0  0  0  0  0  0  0  0  0  0  0  0
    2.9881    1.0001    0.3871 H   0  0  0  0  0  0  0  0  0  0  0  0
    3.9321   -1.1793    0.5305 H   0  0  0  0  0  0  0  0  0  0  0  0
    4.5895    0.1760    1.4624 H   0  0  0  0  0  0  0  0  0  0  0  0
    6.2444   -2.0992    0.3091 H   0  0  0  0  0  0  0  0  0  0  0  0
    7.0719    0.0553    2.3422 H   0  0  0  0  0  0  0  0  0  0  0  0
    7.5347   -0.0155    0.6275 H   0  0  0  0  0  0  0  0  0  0  0  0
    8.0888   -1.2833    1.7618 H   0  0  0  0  0  0  0  0  0  0  0  0
    4.8825   -4.3756    0.1972 H   0  0  0  0  0  0  0  0  0  0  0  0
    5.2888   -5.7051    1.3199 H   0  0  0  0  0  0  0  0  0  0  0  0
    6.5710   -4.6400    0.6772 H   0  0  0  0  0  0  0  0  0  0  0  0
    4.2669   -0.7764    5.0205 H   0  0  0  0  0  0  0  0  0  0  0  0
    5.2429    0.0822    3.7955 H   0  0  0  0  0  0  0  0  0  0  0  0
    6.0392   -0.7942    5.1271 H   0  0  0  0  0  0  0  0  0  0  0  0
    4.1277    2.3329   -2.5847 H   0  0  0  0  0  0  0  0  0  0  0  0
    6.6799    1.1628   -2.3264 H   0  0  0  0  0  0  0  0  0  0  0  0
    6.0647    2.0865   -3.7145 H   0  0  0  0  0  0  0  0  0  0  0  0
    5.6441   -0.9031   -3.2467 H   0  0  0  0  0  0  0  0  0  0  0  0
    4.5822    1.0272   -5.3491 H   0  0  0  0  0  0  0  0  0  0  0  0
    3.8006   -0.4206   -4.6868 H   0  0  0  0  0  0  0  0  0  0  0  0
    4.9536   -0.5893   -7.1600 H   0  0  0  0  0  0  0  0  0  0  0  0
    5.2943   -1.8907   -5.9943 H   0  0  0  0  0  0  0  0  0  0  0  0
    7.0280    0.5737   -6.5842 H   0  0  0  0  0  0  0  0  0  0  0  0
    7.5606   -1.1152   -6.5144 H   0  0  0  0  0  0  0  0  0  0  0  0
    8.8625   -1.3843   -4.7295 H   0  0  0  0  0  0  0  0  0  0  0  0
    7.5040   -2.2586   -3.9952 H   0  0  0  0  0  0  0  0  0  0  0  0
    9.0838    0.0465   -2.6861 H   0  0  0  0  0  0  0  0  0  0  0  0
    9.2277   -1.6945   -2.3084 H   0  0  0  0  0  0  0  0  0  0  0  0
    7.7270   -0.8209   -1.9196 H   0  0  0  0  0  0  0  0  0  0  0  0
  1  2  1  0
  1 25  1  0
  1 26  1  0
  1 27  1  0
  2  3  1  0
  2 28  1  0
  2 29  1  0
  3  4  1  0
  3 30  1  0
  4  5  2  0
  4 16  1  0
  5  6  1  0
  6  7  1  0
  6 31  1  0
  6 32  1  0
  7  8  1  0
  7  9  1  0
  7 33  1  6
  8 34  1  0
  8 35  1  0
  8 36  1  0
  9 10  1  0
  9 14  2  0
 10 11  1  0
 10 12  2  0
 11 37  1  0
 11 38  1  0
 11 39  1  0
 12 13  1  0
 13 14  1  0
 14 15  1  0
 15 40  1  0
 15 41  1  0
 15 42  1  0
 16 17  1  0
 16 43  1  0
 17 18  1  0
 17 44  1  0
 17 45  1  0
 18 19  1  0
 18 22  1  0
 18 46  1  1
 19 20  1  0
 19 47  1  0
 19 48  1  0
 20 21  1  0
 20 49  1  0
 20 50  1  0
 21 22  1  0
 21 51  1  0
 21 52  1  0
 22 23  1  0
 23 24  1  0
 23 53  1  0
 23 54  1  0
 24 55  1  0
 24 56  1  0
 24 57  1  0
M  END

