
     RDKit          3D

 68 72  0  0  0  0  0  0  0  0999 V2000
    0.9184   -2.0412    1.0757 C   0  0  0  0  0  0  0  0  0  0  0  0
   -0.2720   -1.8464    0.8883 C   0  0  0  0  0  0  0  0  0  0  0  0
   -1.6634   -1.6184    0.6678 C   0  0  0  0  0  0  0  0  0  0  0  0
   -2.0980   -0.6843   -0.2988 C   0  0  0  0  0  0  0  0  0  0  0  0
   -3.4588   -0.4664   -0.5093 C   0  0  0  0  0  0  0  0  0  0  0  0
   -4.4110   -1.1711    0.2355 C   0  0  0  0  0  0  0  0  0  0  0  0
   -3.9927   -2.0990    1.1959 C   0  0  0  0  0  0  0  0  0  0  0  0
   -2.6342   -2.3239    1.4133 C   0  0  0  0  0  0  0  0  0  0  0  0
    2.3076   -2.2858    1.3145 C   0  0  0  0  0  0  0  0  0  0  0  0
    2.5837   -3.2382    2.3425 C   0  0  0  0  0  0  0  0  0  0  0  0
    2.7279   -4.0728    3.2221 C   0  0  0  0  0  0  0  0  0  0  0  0
    2.9081   -5.0459    4.2510 C   0  0  0  0  0  0  0  0  0  0  0  0
    1.8472   -5.3669    5.1266 C   0  0  0  0  0  0  0  0  0  0  0  0
    2.0247   -6.3160    6.1321 C   0  0  0  0  0  0  0  0  0  0  0  0
    3.2565   -6.9623    6.2845 C   0  0  0  0  0  0  0  0  0  0  0  0
    4.3142   -6.6540    5.4220 C   0  0  0  0  0  0  0  0  0  0  0  0
    4.1463   -5.7061    4.4136 C   0  0  0  0  0  0  0  0  0  0  0  0
    3.2445   -1.6194    0.5529 C   0  0  0  0  0  0  0  0  0  0  0  0
    4.6940   -1.6440    0.5743 C   0  0  0  0  0  0  0  0  0  0  0  0
    5.3791   -0.9032   -0.4220 C   0  0  0  0  0  0  0  0  0  0  0  0
    6.7630   -0.8566   -0.4893 C   0  0  0  0  0  0  0  0  0  0  0  0
    7.5589   -1.5536    0.4521 C   0  0  0  0  0  0  0  0  0  0  0  0
    9.0083   -1.5782    0.4734 C   0  0  0  0  0  0  0  0  0  0  0  0
    9.9452   -0.9119   -0.2882 C   0  0  0  0  0  0  0  0  0  0  0  0
    9.6691    0.0402   -1.3164 C   0  0  0  0  0  0  0  0  0  0  0  0
    9.5250    0.8747   -2.1962 C   0  0  0  0  0  0  0  0  0  0  0  0
    9.3448    1.8476   -3.2252 C   0  0  0  0  0  0  0  0  0  0  0  0
    8.1066    2.5077   -3.3880 C   0  0  0  0  0  0  0  0  0  0  0  0
    7.9387    3.4554   -4.3966 C   0  0  0  0  0  0  0  0  0  0  0  0
    8.9965    3.7637   -5.2591 C   0  0  0  0  0  0  0  0  0  0  0  0
   10.2283    3.1176   -5.1065 C   0  0  0  0  0  0  0  0  0  0  0  0
   10.4058    2.1686   -4.1008 C   0  0  0  0  0  0  0  0  0  0  0  0
   11.3345   -1.1566   -0.0494 C   0  0  0  0  0  0  0  0  0  0  0  0
   12.5249   -1.3513    0.1380 C   0  0  0  0  0  0  0  0  0  0  0  0
   13.9163   -1.5793    0.3584 C   0  0  0  0  0  0  0  0  0  0  0  0
   14.8871   -0.8731   -0.3866 C   0  0  0  0  0  0  0  0  0  0  0  0
   16.2456   -1.0979   -0.1691 C   0  0  0  0  0  0  0  0  0  0  0  0
   16.6639   -2.0264    0.7906 C   0  0  0  0  0  0  0  0  0  0  0  0
   15.7117   -2.7317    1.5349 C   0  0  0  0  0  0  0  0  0  0  0  0
   14.3509   -2.5139    1.3245 C   0  0  0  0  0  0  0  0  0  0  0  0
    6.8737   -2.2944    1.4484 C   0  0  0  0  0  0  0  0  0  0  0  0
    5.4899   -2.3409    1.5157 C   0  0  0  0  0  0  0  0  0  0  0  0
   -1.3541   -0.1347   -0.8793 H   0  0  0  0  0  0  0  0  0  0  0  0
   -3.7799    0.2595   -1.2607 H   0  0  0  0  0  0  0  0  0  0  0  0
   -5.4769   -0.9976    0.0678 H   0  0  0  0  0  0  0  0  0  0  0  0
   -4.7324   -2.6524    1.7802 H   0  0  0  0  0  0  0  0  0  0  0  0
   -2.3062   -3.0480    2.1617 H   0  0  0  0  0  0  0  0  0  0  0  0
    0.8874   -4.8605    5.0064 H   0  0  0  0  0  0  0  0  0  0  0  0
    1.1954   -6.5541    6.8032 H   0  0  0  0  0  0  0  0  0  0  0  0
    3.3916   -7.7061    7.0738 H   0  0  0  0  0  0  0  0  0  0  0  0
    5.2774   -7.1579    5.5354 H   0  0  0  0  0  0  0  0  0  0  0  0
    4.9696   -5.4703    3.7361 H   0  0  0  0  0  0  0  0  0  0  0  0
    2.8172   -0.9563   -0.2043 H   0  0  0  0  0  0  0  0  0  0  0  0
    4.7928   -0.3560   -1.1654 H   0  0  0  0  0  0  0  0  0  0  0  0
    7.2407   -0.2829   -1.2814 H   0  0  0  0  0  0  0  0  0  0  0  0
    9.4356   -2.2413    1.2308 H   0  0  0  0  0  0  0  0  0  0  0  0
    7.2832    2.2719   -2.7106 H   0  0  0  0  0  0  0  0  0  0  0  0
    6.9754    3.9592   -4.5102 H   0  0  0  0  0  0  0  0  0  0  0  0
    8.8614    4.5074   -6.0484 H   0  0  0  0  0  0  0  0  0  0  0  0
   11.0576    3.3556   -5.7775 H   0  0  0  0  0  0  0  0  0  0  0  0
   11.3656    1.6623   -3.9804 H   0  0  0  0  0  0  0  0  0  0  0  0
   14.5589   -0.1485   -1.1345 H   0  0  0  0  0  0  0  0  0  0  0  0
   16.9852   -0.5440   -0.7530 H   0  0  0  0  0  0  0  0  0  0  0  0
   17.7298   -2.1998    0.9584 H   0  0  0  0  0  0  0  0  0  0  0  0
   16.0330   -3.4580    2.2859 H   0  0  0  0  0  0  0  0  0  0  0  0
   13.6071   -3.0640    1.9046 H   0  0  0  0  0  0  0  0  0  0  0  0
    7.4600   -2.8415    2.1918 H   0  0  0  0  0  0  0  0  0  0  0  0
    5.0122   -2.9146    2.3078 H   0  0  0  0  0  0  0  0  0  0  0  0
  1  2  3  0
  1  9  1  0
  2  3  1  0
  3  4  2  0
  3  8  1  0
  4  5  1  0
  4 43  1  0
  5  6  2  0
  5 44  1  0
  6  7  1  0
  6 45  1  0
  7  8  2  0
  7 46  1  0
  8 47  1  0
  9 10  1  0
  9 18  2  0
 10 11  3  0
 11 12  1  0
 12 13  2  0
 12 17  1  0
 13 14  1  0
 13 48  1  0
 14 15  2  0
 14 49  1  0
 15 16  1  0
 15 50  1  0
 16 17  2  0
 16 51  1  0
 17 52  1  0
 18 19  1  0
 18 53  1  0
 19 20  2  0
 19 42  1  0
 20 21  1  0
 20 54  1  0
 21 22  2  0
 21 55  1  0
 22 23  1  0
 22 41  1  0
 23 24  2  0
 23 56  1  0
 24 25  1  0
 24 33  1  0
 25 26  3  0
 26 27  1  0
 27 28  2  0
 27 32  1  0
 28 29  1  0
 28 57  1  0
 29 30  2  0
 29 58  1  0
 30 31  1  0
 30 59  1  0
 31 32  2  0
 31 60  1  0
 32 61  1  0
 33 34  3  0
 34 35  1  0
 35 36  2  0
 35 40  1  0
 36 37  1  0
 36 62  1  0
 37 38  2  0
 37 63  1  0
 38 39  1  0
 38 64  1  0
 39 40  2  0
 39 65  1  0
 40 66  1  0
 41 42  2  0
 41 67  1  0
 42 68  1  0
M  END

