
     RDKit          3D

 66 68  0  0  0  0  0  0  0  0999 V2000
    6.7574   -1.7283    7.0313 C   0  0  0  0  0  0  0  0  0  0  0  0
    5.2527   -1.4917    7.1616 C   0  0  0  0  0  0  0  0  0  0  0  0
    4.7572   -0.2290    6.4464 C   0  0  0  0  0  0  0  0  0  0  0  0
    4.9302   -0.2500    4.9914 N   0  0  0  0  0  0  0  0  0  0  0  0
    3.9008   -1.0375    4.3102 C   0  0  0  0  0  0  0  0  0  0  0  0
    4.2949   -1.5426    2.9172 C   0  0  0  0  0  0  0  0  0  0  0  0
    5.5157   -2.4628    2.9041 C   0  0  0  0  0  0  0  0  0  0  0  0
    5.0985    1.0812    4.4226 C   0  0  0  0  0  0  0  0  0  0  0  0
    6.5427    1.5734    4.5755 C   0  0  0  0  0  0  0  0  0  0  0  0
    6.7424    3.2237    3.8588 S   0  0  1  0  0  0  0  0  0  0  0  0
    6.5598    3.1193    2.4044 O   0  0  0  0  0  0  0  0  0  0  0  0
    5.9314    4.1478    4.6525 O   0  0  0  0  0  0  0  0  0  0  0  0
    8.3845    3.6260    4.0950 N   0  0  0  0  0  0  0  0  0  0  0  0
    9.3325    3.5004    2.9635 C   0  0  0  0  0  0  0  0  0  0  0  0
    9.9478    2.1268    2.7700 C   0  0  0  0  0  0  0  0  0  0  0  0
    9.2898    1.1591    1.9910 C   0  0  0  0  0  0  0  0  0  0  0  0
    9.8402   -0.1113    1.8099 C   0  0  0  0  0  0  0  0  0  0  0  0
   11.0621   -0.4137    2.4117 C   0  0  0  0  0  0  0  0  0  0  0  0
   11.5911   -1.7013    2.2807 O   0  0  0  0  0  0  0  0  0  0  0  0
   12.4213   -1.9550    1.2452 C   0  0  1  0  0  0  0  0  0  0  0  0
   11.8298   -1.7554    0.0573 F   0  0  0  0  0  0  0  0  0  0  0  0
   13.5185   -1.1823    1.2714 F   0  0  0  0  0  0  0  0  0  0  0  0
   12.7955   -3.2245    1.3239 F   0  0  0  0  0  0  0  0  0  0  0  0
   11.7388    0.5272    3.1865 C   0  0  0  0  0  0  0  0  0  0  0  0
   11.1768    1.7939    3.3601 C   0  0  0  0  0  0  0  0  0  0  0  0
    8.8080    4.0256    5.3707 C   0  0  0  0  0  0  0  0  0  0  0  0
    9.5648    2.8385    6.4697 S   0  0  0  0  0  0  0  0  0  0  0  0
    9.7533    4.0635    7.7011 C   0  0  0  0  0  0  0  0  0  0  0  0
   10.3268    3.9027    8.9701 C   0  0  0  0  0  0  0  0  0  0  0  0
   10.3848    5.0059    9.8179 C   0  0  0  0  0  0  0  0  0  0  0  0
    9.8809    6.2563    9.4093 C   0  0  0  0  0  0  0  0  0  0  0  0
    9.3156    6.4155    8.1490 C   0  0  0  0  0  0  0  0  0  0  0  0
    9.2440    5.3163    7.2687 C   0  0  0  0  0  0  0  0  0  0  0  0
    8.7067    5.2767    5.9249 C   0  0  0  0  0  0  0  0  0  0  0  0
    8.1009    6.4665    5.2449 C   0  0  0  0  0  0  0  0  0  0  0  0
    7.0676   -2.6415    7.5636 H   0  0  0  0  0  0  0  0  0  0  0  0
    7.3322   -0.8861    7.4532 H   0  0  0  0  0  0  0  0  0  0  0  0
    7.0498   -1.8335    5.9757 H   0  0  0  0  0  0  0  0  0  0  0  0
    4.9768   -1.4005    8.2271 H   0  0  0  0  0  0  0  0  0  0  0  0
    4.7029   -2.3738    6.7897 H   0  0  0  0  0  0  0  0  0  0  0  0
    5.3190    0.6302    6.8481 H   0  0  0  0  0  0  0  0  0  0  0  0
    3.6928   -0.0417    6.7139 H   0  0  0  0  0  0  0  0  0  0  0  0
    2.9456   -0.4680    4.2394 H   0  0  0  0  0  0  0  0  0  0  0  0
    3.6824   -1.9138    4.9409 H   0  0  0  0  0  0  0  0  0  0  0  0
    4.4646   -0.6886    2.2382 H   0  0  0  0  0  0  0  0  0  0  0  0
    3.4204   -2.0737    2.5018 H   0  0  0  0  0  0  0  0  0  0  0  0
    6.4082   -1.9457    3.2877 H   0  0  0  0  0  0  0  0  0  0  0  0
    5.7376   -2.8170    1.8847 H   0  0  0  0  0  0  0  0  0  0  0  0
    5.3533   -3.3515    3.5371 H   0  0  0  0  0  0  0  0  0  0  0  0
    4.4071    1.8247    4.8713 H   0  0  0  0  0  0  0  0  0  0  0  0
    4.8702    1.0505    3.3481 H   0  0  0  0  0  0  0  0  0  0  0  0
    7.2476    0.9135    4.0511 H   0  0  0  0  0  0  0  0  0  0  0  0
    6.8499    1.6659    5.6269 H   0  0  0  0  0  0  0  0  0  0  0  0
   10.1194    4.2460    3.1468 H   0  0  0  0  0  0  0  0  0  0  0  0
    8.7944    3.7990    2.0545 H   0  0  0  0  0  0  0  0  0  0  0  0
    8.3348    1.4104    1.5232 H   0  0  0  0  0  0  0  0  0  0  0  0
    9.3354   -0.8674    1.2066 H   0  0  0  0  0  0  0  0  0  0  0  0
   12.6931    0.2620    3.6443 H   0  0  0  0  0  0  0  0  0  0  0  0
   11.7052    2.5334    3.9666 H   0  0  0  0  0  0  0  0  0  0  0  0
   10.7169    2.9332    9.2880 H   0  0  0  0  0  0  0  0  0  0  0  0
   10.8253    4.8980   10.8122 H   0  0  0  0  0  0  0  0  0  0  0  0
    9.9354    7.1083   10.0912 H   0  0  0  0  0  0  0  0  0  0  0  0
    8.9257    7.3878    7.8389 H   0  0  0  0  0  0  0  0  0  0  0  0
    7.1960    6.7997    5.7790 H   0  0  0  0  0  0  0  0  0  0  0  0
    7.8017    6.2288    4.2167 H   0  0  0  0  0  0  0  0  0  0  0  0
    8.8066    7.3137    5.2266 H   0  0  0  0  0  0  0  0  0  0  0  0
  1  2  1  0
  1 36  1  0
  1 37  1  0
  1 38  1  0
  2  3  1  0
  2 39  1  0
  2 40  1  0
  3  4  1  0
  3 41  1  0
  3 42  1  0
  4  5  1  0
  4  8  1  0
  5  6  1  0
  5 43  1  0
  5 44  1  0
  6  7  1  0
  6 45  1  0
  6 46  1  0
  7 47  1  0
  7 48  1  0
  7 49  1  0
  8  9  1  0
  8 50  1  0
  8 51  1  0
  9 10  1  0
  9 52  1  0
  9 53  1  0
 10 11  2  0
 10 12  2  0
 10 13  1  6
 13 14  1  0
 13 26  1  0
 14 15  1  0
 14 54  1  0
 14 55  1  0
 15 16  2  0
 15 25  1  0
 16 17  1  0
 16 56  1  0
 17 18  2  0
 17 57  1  0
 18 19  1  0
 18 24  1  0
 19 20  1  0
 20 21  1  6
 20 22  1  0
 20 23  1  0
 24 25  2  0
 24 58  1  0
 25 59  1  0
 26 27  1  0
 26 34  2  0
 27 28  1  0
 28 29  2  0
 28 33  1  0
 29 30  1  0
 29 60  1  0
 30 31  2  0
 30 61  1  0
 31 32  1  0
 31 62  1  0
 32 33  2  0
 32 63  1  0
 33 34  1  0
 34 35  1  0
 35 64  1  0
 35 65  1  0
 35 66  1  0
M  END

