
     RDKit          3D

 68 71  0  0  0  0  0  0  0  0999 V2000
    5.0887   -3.6581   -1.5779 C   0  0  0  0  0  0  0  0  0  0  0  0
    4.7523   -2.3143   -1.3145 O   0  0  0  0  0  0  0  0  0  0  0  0
    4.8965   -1.3887   -2.2934 C   0  0  0  0  0  0  0  0  0  0  0  0
    5.3678   -1.6599   -3.5865 C   0  0  0  0  0  0  0  0  0  0  0  0
    5.4740   -0.6202   -4.5137 C   0  0  0  0  0  0  0  0  0  0  0  0
    5.1228    0.7047   -4.1983 C   0  0  0  0  0  0  0  0  0  0  0  0
    5.2604    1.7404   -5.2198 C   0  0  0  0  0  0  0  0  0  0  0  0
    4.9768    3.0572   -5.1095 C   0  0  0  0  0  0  0  0  0  0  0  0
    5.1535    4.0147   -6.2071 C   0  0  0  0  0  0  0  0  0  0  0  0
    4.8396    5.3710   -6.0268 C   0  0  0  0  0  0  0  0  0  0  0  0
    5.0290    6.2430   -7.1142 C   0  0  0  0  0  0  0  0  0  0  0  0
    4.7158    7.6703   -6.9754 C   0  0  0  0  0  0  0  0  0  0  0  0
    4.8709    8.5723   -7.9693 C   0  0  0  0  0  0  0  0  0  0  0  0
    4.5902   10.0066   -7.9319 C   0  0  0  0  0  0  0  0  0  0  0  0
    4.8265   10.7846   -9.0879 C   0  0  0  0  0  0  0  0  0  0  0  0
    4.5803   12.1507   -9.1137 C   0  0  0  0  0  0  0  0  0  0  0  0
    4.0818   12.8005   -7.9710 C   0  0  0  0  0  0  0  0  0  0  0  0
    3.8701   14.1342   -8.0824 O   0  0  0  0  0  0  0  0  0  0  0  0
    3.3705   14.8527   -6.9768 C   0  0  0  0  0  0  0  0  0  0  0  0
    3.8375   12.0490   -6.8077 C   0  0  0  0  0  0  0  0  0  0  0  0
    4.0905   10.6778   -6.7992 C   0  0  0  0  0  0  0  0  0  0  0  0
    5.4955    5.7823   -8.2836 N   0  0  0  0  0  0  0  0  0  0  0  0
    5.7728    4.4707   -8.3774 C   0  0  0  0  0  0  0  0  0  0  0  0
    6.2847    3.9409   -9.6469 C   0  0  0  0  0  0  0  0  0  0  0  0
    6.5012    4.6884  -10.7524 C   0  0  0  0  0  0  0  0  0  0  0  0
    7.0054    4.2405  -12.0463 C   0  0  0  0  0  0  0  0  0  0  0  0
    7.3538    2.9037  -12.3354 C   0  0  0  0  0  0  0  0  0  0  0  0
    7.8301    2.5194  -13.5808 C   0  0  0  0  0  0  0  0  0  0  0  0
    7.9908    3.4621  -14.6319 C   0  0  0  0  0  0  0  0  0  0  0  0
    8.4649    3.0837  -15.8729 N   0  0  0  0  0  0  0  0  0  0  0  0
    8.6148    4.0697  -16.9227 C   0  0  0  0  0  0  0  0  0  0  0  0
    8.8099    1.7007  -16.1298 C   0  0  0  0  0  0  0  0  0  0  0  0
    7.6420    4.8064  -14.3478 C   0  0  0  0  0  0  0  0  0  0  0  0
    7.1665    5.1704  -13.0928 C   0  0  0  0  0  0  0  0  0  0  0  0
    5.6201    3.5747   -7.3878 N   0  0  0  0  0  0  0  0  0  0  0  0
    4.6502    0.9515   -2.8873 C   0  0  0  0  0  0  0  0  0  0  0  0
    4.5386   -0.0679   -1.9554 C   0  0  0  0  0  0  0  0  0  0  0  0
    4.8918   -4.2172   -0.6534 H   0  0  0  0  0  0  0  0  0  0  0  0
    6.1555   -3.7702   -1.8434 H   0  0  0  0  0  0  0  0  0  0  0  0
    4.4740   -4.0839   -2.3914 H   0  0  0  0  0  0  0  0  0  0  0  0
    5.6535   -2.6696   -3.8818 H   0  0  0  0  0  0  0  0  0  0  0  0
    5.8427   -0.8438   -5.5186 H   0  0  0  0  0  0  0  0  0  0  0  0
    5.6389    1.4117   -6.1931 H   0  0  0  0  0  0  0  0  0  0  0  0
    4.5939    3.4753   -4.1739 H   0  0  0  0  0  0  0  0  0  0  0  0
    4.4599    5.7388   -5.0713 H   0  0  0  0  0  0  0  0  0  0  0  0
    4.3391    7.9756   -5.9946 H   0  0  0  0  0  0  0  0  0  0  0  0
    5.2539    8.1827   -8.9179 H   0  0  0  0  0  0  0  0  0  0  0  0
    5.2143   10.2944   -9.9850 H   0  0  0  0  0  0  0  0  0  0  0  0
    4.7653   12.7461  -10.0100 H   0  0  0  0  0  0  0  0  0  0  0  0
    3.2818   15.8992   -7.2980 H   0  0  0  0  0  0  0  0  0  0  0  0
    4.0539   14.8019   -6.1100 H   0  0  0  0  0  0  0  0  0  0  0  0
    2.3745   14.4891   -6.6655 H   0  0  0  0  0  0  0  0  0  0  0  0
    3.4507   12.5233   -5.9055 H   0  0  0  0  0  0  0  0  0  0  0  0
    3.8909   10.1200   -5.8815 H   0  0  0  0  0  0  0  0  0  0  0  0
    6.4821    2.8667   -9.6285 H   0  0  0  0  0  0  0  0  0  0  0  0
    6.2724    5.7560  -10.6718 H   0  0  0  0  0  0  0  0  0  0  0  0
    7.2492    2.1393  -11.5621 H   0  0  0  0  0  0  0  0  0  0  0  0
    8.0812    1.4713  -13.7397 H   0  0  0  0  0  0  0  0  0  0  0  0
    7.6541    4.5513  -17.1846 H   0  0  0  0  0  0  0  0  0  0  0  0
    9.0020    3.5840  -17.8276 H   0  0  0  0  0  0  0  0  0  0  0  0
    9.3221    4.8730  -16.6438 H   0  0  0  0  0  0  0  0  0  0  0  0
    9.6134    1.3387  -15.4616 H   0  0  0  0  0  0  0  0  0  0  0  0
    9.1655    1.5996  -17.1632 H   0  0  0  0  0  0  0  0  0  0  0  0
    7.9450    1.0228  -16.0048 H   0  0  0  0  0  0  0  0  0  0  0  0
    7.7417    5.5765  -15.1116 H   0  0  0  0  0  0  0  0  0  0  0  0
    6.9080    6.2179  -12.9121 H   0  0  0  0  0  0  0  0  0  0  0  0
    4.3647    1.9640   -2.5937 H   0  0  0  0  0  0  0  0  0  0  0  0
    4.1738    0.1245   -0.9444 H   0  0  0  0  0  0  0  0  0  0  0  0
  1  2  1  0
  1 38  1  0
  1 39  1  0
  1 40  1  0
  2  3  1  0
  3  4  2  0
  3 37  1  0
  4  5  1  0
  4 41  1  0
  5  6  2  0
  5 42  1  0
  6  7  1  0
  6 36  1  0
  7  8  2  0
  7 43  1  0
  8  9  1  0
  8 44  1  0
  9 10  2  0
  9 35  1  0
 10 11  1  0
 10 45  1  0
 11 12  1  0
 11 22  2  0
 12 13  2  0
 12 46  1  0
 13 14  1  0
 13 47  1  0
 14 15  2  0
 14 21  1  0
 15 16  1  0
 15 48  1  0
 16 17  2  0
 16 49  1  0
 17 18  1  0
 17 20  1  0
 18 19  1  0
 19 50  1  0
 19 51  1  0
 19 52  1  0
 20 21  2  0
 20 53  1  0
 21 54  1  0
 22 23  1  0
 23 24  1  0
 23 35  2  0
 24 25  2  0
 24 55  1  0
 25 26  1  0
 25 56  1  0
 26 27  2  0
 26 34  1  0
 27 28  1  0
 27 57  1  0
 28 29  2  0
 28 58  1  0
 29 30  1  0
 29 33  1  0
 30 31  1  0
 30 32  1  0
 31 59  1  0
 31 60  1  0
 31 61  1  0
 32 62  1  0
 32 63  1  0
 32 64  1  0
 33 34  2  0
 33 65  1  0
 34 66  1  0
 36 37  2  0
 36 67  1  0
 37 68  1  0
M  END

