
     RDKit          3D

 35 35  0  0  0  0  0  0  0  0999 V2000
   -0.5825   -2.8650    3.1810 C   0  0  0  0  0  0  0  0  0  0  0  0
    0.7496   -3.3619    3.1801 O   0  0  0  0  0  0  0  0  0  0  0  0
    1.7299   -2.8518    2.4057 C   0  0  0  0  0  0  0  0  0  0  0  0
    3.0309   -2.9922    2.9298 C   0  0  0  0  0  0  0  0  0  0  0  0
    4.1524   -2.5507    2.2401 C   0  0  0  0  0  0  0  0  0  0  0  0
    3.9925   -1.9403    0.9901 C   0  0  0  0  0  0  0  0  0  0  0  0
    5.5199   -1.3173    0.0326 Br  0  0  0  0  0  0  0  0  0  0  0  0
    2.7230   -1.7954    0.4432 C   0  0  0  0  0  0  0  0  0  0  0  0
    1.5851   -2.2579    1.1310 C   0  0  0  0  0  0  0  0  0  0  0  0
    0.2957   -2.1793    0.4960 N   0  0  0  0  0  0  0  0  0  0  0  0
   -0.3257   -0.6273    0.1815 S   0  0  1  0  0  0  0  0  0  0  0  0
   -0.3667    0.0581    1.4722 O   0  0  0  0  0  0  0  0  0  0  0  0
    0.3281    0.0111   -0.9625 O   0  0  0  0  0  0  0  0  0  0  0  0
   -1.8420   -1.1098   -0.3443 N   0  0  0  0  0  0  0  0  0  0  0  0
   -2.5515   -0.2851   -1.3353 C   0  0  0  0  0  0  0  0  0  0  0  0
   -3.5786   -1.1028   -2.1376 C   0  0  1  0  0  0  0  0  0  0  0  0
   -2.9152   -2.2013   -2.9755 C   0  0  0  0  0  0  0  0  0  0  0  0
   -4.6988   -1.6619   -1.2502 C   0  0  0  0  0  0  0  0  0  0  0  0
   -0.9991   -3.1280    4.1645 H   0  0  0  0  0  0  0  0  0  0  0  0
   -1.1899   -3.3395    2.3946 H   0  0  0  0  0  0  0  0  0  0  0  0
   -0.6065   -1.7733    3.0472 H   0  0  0  0  0  0  0  0  0  0  0  0
    3.1269   -3.4628    3.9102 H   0  0  0  0  0  0  0  0  0  0  0  0
    5.1472   -2.6708    2.6723 H   0  0  0  0  0  0  0  0  0  0  0  0
    2.5869   -1.3224   -0.5303 H   0  0  0  0  0  0  0  0  0  0  0  0
    0.2358   -2.7220   -0.3668 H   0  0  0  0  0  0  0  0  0  0  0  0
   -2.4035   -1.3850    0.4608 H   0  0  0  0  0  0  0  0  0  0  0  0
   -1.7889    0.1237   -2.0122 H   0  0  0  0  0  0  0  0  0  0  0  0
   -3.0539    0.5723   -0.8499 H   0  0  0  0  0  0  0  0  0  0  0  0
   -4.0374   -0.3741   -2.8312 H   0  0  0  0  0  0  0  0  0  0  0  0
   -2.4209   -2.9450   -2.3303 H   0  0  0  0  0  0  0  0  0  0  0  0
   -2.1523   -1.7847   -3.6527 H   0  0  0  0  0  0  0  0  0  0  0  0
   -3.6592   -2.7315   -3.5911 H   0  0  0  0  0  0  0  0  0  0  0  0
   -4.3174   -2.4258   -0.5507 H   0  0  0  0  0  0  0  0  0  0  0  0
   -5.4788   -2.1469   -1.8581 H   0  0  0  0  0  0  0  0  0  0  0  0
   -5.1838   -0.8681   -0.6579 H   0  0  0  0  0  0  0  0  0  0  0  0
  1  2  1  0
  1 19  1  0
  1 20  1  0
  1 21  1  0
  2  3  1  0
  3  4  2  0
  3  9  1  0
  4  5  1  0
  4 22  1  0
  5  6  2  0
  5 23  1  0
  6  7  1  0
  6  8  1  0
  8  9  2  0
  8 24  1  0
  9 10  1  0
 11 10  1  1
 10 25  1  0
 11 12  2  0
 11 13  2  0
 11 14  1  0
 14 15  1  0
 14 26  1  0
 15 16  1  0
 15 27  1  0
 15 28  1  0
 16 17  1  0
 16 18  1  0
 16 29  1  6
 17 30  1  0
 17 31  1  0
 17 32  1  0
 18 33  1  0
 18 34  1  0
 18 35  1  0
M  END

