
     RDKit          3D

 31 33  0  0  0  0  0  0  0  0999 V2000
    1.2483    0.1380   -0.7759 Cl  0  0  0  0  0  0  0  0  0  0  0  0
    2.8352    0.0054    0.1556 C   0  0  1  0  0  0  0  0  0  0  0  0
    2.6379    0.4414    1.5797 C   0  0  0  0  0  0  0  0  0  0  0  0
    3.6655    0.4771    2.5914 C   0  0  0  0  0  0  0  0  0  0  0  0
    3.0681    0.9597    3.7183 C   0  0  0  0  0  0  0  0  0  0  0  0
    1.7589    1.2226    3.4848 O   0  0  0  0  0  0  0  0  0  0  0  0
    1.5064    0.9077    2.1902 C   0  0  0  0  0  0  0  0  0  0  0  0
    3.4041   -1.3845   -0.0124 C   0  0  0  0  0  0  0  0  0  0  0  0
    4.4061   -1.6271   -0.9618 C   0  0  0  0  0  0  0  0  0  0  0  0
    4.9117   -2.9147   -1.1378 C   0  0  0  0  0  0  0  0  0  0  0  0
    4.4394   -3.9884   -0.3735 C   0  0  0  0  0  0  0  0  0  0  0  0
    3.4266   -3.7518    0.5874 C   0  0  0  0  0  0  0  0  0  0  0  0
    2.9239   -2.4576    0.7483 C   0  0  0  0  0  0  0  0  0  0  0  0
    2.9647   -4.7154    1.4394 O   0  0  0  0  0  0  0  0  0  0  0  0
    2.4292   -5.9177    0.8999 C   0  0  0  0  0  0  0  0  0  0  0  0
    3.4961   -6.8732    0.3832 C   0  0  0  0  0  0  0  0  0  0  0  0
    4.2508   -6.3428   -0.8278 C   0  0  0  0  0  0  0  0  0  0  0  0
    5.0480   -5.1990   -0.5414 O   0  0  0  0  0  0  0  0  0  0  0  0
    3.4921    0.7205   -0.3596 H   0  0  0  0  0  0  0  0  0  0  0  0
    4.7042    0.1717    2.4840 H   0  0  0  0  0  0  0  0  0  0  0  0
    3.4277    1.1598    4.7246 H   0  0  0  0  0  0  0  0  0  0  0  0
    0.4932    1.0653    1.8345 H   0  0  0  0  0  0  0  0  0  0  0  0
    4.7915   -0.8060   -1.5720 H   0  0  0  0  0  0  0  0  0  0  0  0
    5.7012   -3.1199   -1.8638 H   0  0  0  0  0  0  0  0  0  0  0  0
    2.1506   -2.3061    1.5036 H   0  0  0  0  0  0  0  0  0  0  0  0
    1.7041   -5.6775    0.0977 H   0  0  0  0  0  0  0  0  0  0  0  0
    1.8722   -6.3814    1.7277 H   0  0  0  0  0  0  0  0  0  0  0  0
    3.0116   -7.8265    0.1057 H   0  0  0  0  0  0  0  0  0  0  0  0
    4.2125   -7.0923    1.1928 H   0  0  0  0  0  0  0  0  0  0  0  0
    3.5462   -6.1095   -1.6500 H   0  0  0  0  0  0  0  0  0  0  0  0
    4.9584   -7.1001   -1.1969 H   0  0  0  0  0  0  0  0  0  0  0  0
  1  2  1  0
  2  3  1  0
  2  8  1  0
  2 19  1  6
  3  4  1  0
  3  7  2  0
  4  5  2  0
  4 20  1  0
  5  6  1  0
  5 21  1  0
  6  7  1  0
  7 22  1  0
  8  9  2  0
  8 13  1  0
  9 10  1  0
  9 23  1  0
 10 11  2  0
 10 24  1  0
 11 12  1  0
 11 18  1  0
 12 13  2  0
 12 14  1  0
 13 25  1  0
 14 15  1  0
 15 16  1  0
 15 26  1  0
 15 27  1  0
 16 17  1  0
 16 28  1  0
 16 29  1  0
 17 18  1  0
 17 30  1  0
 17 31  1  0
M  END

