
     RDKit          3D

 55 57  0  0  0  0  0  0  0  0999 V2000
    2.8501   -1.1855    2.6156 O   0  0  0  0  0  0  0  0  0  0  0  0
    3.4383   -0.3926    1.8859 C   0  0  0  0  0  0  0  0  0  0  0  0
    3.2963    0.9542    2.0104 N   0  0  0  0  0  0  0  0  0  0  0  0
    2.4594    1.5854    3.0088 C   0  0  0  0  0  0  0  0  0  0  0  0
    3.1288    2.8601    3.5319 C   0  0  0  0  0  0  0  0  0  0  0  0
    3.5143    3.7580    2.4435 N   0  0  0  0  0  0  0  0  0  0  0  0
    2.4171    4.5468    1.8723 C   0  0  0  0  0  0  0  0  0  0  0  0
    2.0319    5.7753    2.7151 C   0  0  0  0  0  0  0  0  0  0  0  0
    3.2598    6.6540    2.9908 C   0  0  0  0  0  0  0  0  0  0  0  0
    4.4029    5.8197    3.5849 C   0  0  0  0  0  0  0  0  0  0  0  0
    4.6889    4.5944    2.7006 C   0  0  0  0  0  0  0  0  0  0  0  0
    4.3636   -0.8479    0.7543 C   0  0  1  0  0  0  0  0  0  0  0  0
    5.4368   -1.8436    1.2520 C   0  0  0  0  0  0  0  0  0  0  0  0
    4.8725   -3.2421    1.5319 C   0  0  0  0  0  0  0  0  0  0  0  0
    4.1074   -3.7560    0.3843 N   0  0  0  0  0  0  0  0  0  0  0  0
    4.9169   -4.6875   -0.7401 S   0  0  1  0  0  0  0  0  0  0  0  0
    4.1746   -4.6342   -1.9996 O   0  0  0  0  0  0  0  0  0  0  0  0
    6.3528   -4.3747   -0.7083 O   0  0  0  0  0  0  0  0  0  0  0  0
    4.7861   -6.3748   -0.0793 C   0  0  0  0  0  0  0  0  0  0  0  0
    5.9904   -7.0345    0.1857 C   0  0  0  0  0  0  0  0  0  0  0  0
    5.9747   -8.3492    0.6544 C   0  0  0  0  0  0  0  0  0  0  0  0
    7.4809   -9.1647    0.9875 Cl  0  0  0  0  0  0  0  0  0  0  0  0
    4.7636   -9.0159    0.8570 C   0  0  0  0  0  0  0  0  0  0  0  0
    3.5643   -8.3572    0.5872 C   0  0  0  0  0  0  0  0  0  0  0  0
    3.5639   -7.0400    0.1156 C   0  0  0  0  0  0  0  0  0  0  0  0
    2.0269   -6.2856   -0.1958 Cl  0  0  0  0  0  0  0  0  0  0  0  0
    3.0211   -2.8738   -0.0679 C   0  0  0  0  0  0  0  0  0  0  0  0
    3.5450   -1.4736   -0.4028 C   0  0  0  0  0  0  0  0  0  0  0  0
    3.8036    1.5934    1.4059 H   0  0  0  0  0  0  0  0  0  0  0  0
    2.2965    0.8676    3.8260 H   0  0  0  0  0  0  0  0  0  0  0  0
    1.4603    1.8165    2.5925 H   0  0  0  0  0  0  0  0  0  0  0  0
    4.0470    2.5719    4.0685 H   0  0  0  0  0  0  0  0  0  0  0  0
    2.4581    3.3282    4.2825 H   0  0  0  0  0  0  0  0  0  0  0  0
    1.5442    3.8934    1.7171 H   0  0  0  0  0  0  0  0  0  0  0  0
    2.7319    4.8863    0.8681 H   0  0  0  0  0  0  0  0  0  0  0  0
    1.5896    5.4470    3.6728 H   0  0  0  0  0  0  0  0  0  0  0  0
    1.2475    6.3496    2.1936 H   0  0  0  0  0  0  0  0  0  0  0  0
    2.9982    7.4919    3.6581 H   0  0  0  0  0  0  0  0  0  0  0  0
    3.6006    7.1077    2.0411 H   0  0  0  0  0  0  0  0  0  0  0  0
    4.1321    5.4867    4.6033 H   0  0  0  0  0  0  0  0  0  0  0  0
    5.3186    6.4266    3.6878 H   0  0  0  0  0  0  0  0  0  0  0  0
    5.4801    3.9670    3.1416 H   0  0  0  0  0  0  0  0  0  0  0  0
    5.0724    4.9446    1.7236 H   0  0  0  0  0  0  0  0  0  0  0  0
    4.8824    0.0411    0.3587 H   0  0  0  0  0  0  0  0  0  0  0  0
    5.9250   -1.4555    2.1617 H   0  0  0  0  0  0  0  0  0  0  0  0
    6.2146   -1.9359    0.4768 H   0  0  0  0  0  0  0  0  0  0  0  0
    4.1869   -3.2099    2.3907 H   0  0  0  0  0  0  0  0  0  0  0  0
    5.6867   -3.9421    1.7640 H   0  0  0  0  0  0  0  0  0  0  0  0
    6.9290   -6.5061    0.0187 H   0  0  0  0  0  0  0  0  0  0  0  0
    4.7598  -10.0435    1.2237 H   0  0  0  0  0  0  0  0  0  0  0  0
    2.6103   -8.8644    0.7402 H   0  0  0  0  0  0  0  0  0  0  0  0
    2.2858   -2.8258    0.7496 H   0  0  0  0  0  0  0  0  0  0  0  0
    2.5409   -3.3286   -0.9420 H   0  0  0  0  0  0  0  0  0  0  0  0
    2.7012   -0.8153   -0.6712 H   0  0  0  0  0  0  0  0  0  0  0  0
    4.1919   -1.5453   -1.2937 H   0  0  0  0  0  0  0  0  0  0  0  0
  1  2  2  0
  2  3  1  0
  2 12  1  0
  3  4  1  0
  3 29  1  0
  4  5  1  0
  4 30  1  0
  4 31  1  0
  5  6  1  0
  5 32  1  0
  5 33  1  0
  6  7  1  0
  6 11  1  0
  7  8  1  0
  7 34  1  0
  7 35  1  0
  8  9  1  0
  8 36  1  0
  8 37  1  0
  9 10  1  0
  9 38  1  0
  9 39  1  0
 10 11  1  0
 10 40  1  0
 10 41  1  0
 11 42  1  0
 11 43  1  0
 12 13  1  0
 12 28  1  0
 12 44  1  6
 13 14  1  0
 13 45  1  0
 13 46  1  0
 14 15  1  0
 14 47  1  0
 14 48  1  0
 15 16  1  0
 15 27  1  0
 16 17  2  0
 16 18  2  0
 16 19  1  1
 19 20  2  0
 19 25  1  0
 20 21  1  0
 20 49  1  0
 21 22  1  0
 21 23  2  0
 23 24  1  0
 23 50  1  0
 24 25  2  0
 24 51  1  0
 25 26  1  0
 27 28  1  0
 27 52  1  0
 27 53  1  0
 28 54  1  0
 28 55  1  0
M  END

