
     RDKit          3D

 48 50  0  0  0  0  0  0  0  0999 V2000
    5.7955    0.4705    2.2165 C   0  0  0  0  0  0  0  0  0  0  0  0
    4.8786   -0.3235    1.2860 C   0  0  0  0  0  0  0  0  0  0  0  0
    3.7052    0.4808    0.7246 C   0  0  1  0  0  0  0  0  0  0  0  0
    2.9282    1.0249    1.8027 O   0  0  0  0  0  0  0  0  0  0  0  0
    1.5684    1.0284    1.7341 C   0  0  0  0  0  0  0  0  0  0  0  0
    0.7905   -0.1243    1.5709 C   0  0  0  0  0  0  0  0  0  0  0  0
   -0.6002   -0.0471    1.5545 C   0  0  0  0  0  0  0  0  0  0  0  0
   -1.2598    1.1961    1.6985 C   0  0  0  0  0  0  0  0  0  0  0  0
   -2.7024    1.4163    1.6903 C   0  0  0  0  0  0  0  0  0  0  0  0
   -3.8098    0.6270    1.5802 C   0  0  0  0  0  0  0  0  0  0  0  0
   -5.4291    1.3641    1.6197 S   0  0  0  0  0  0  0  0  0  0  0  0
   -6.2561   -0.1825    1.4324 C   0  0  0  0  0  0  0  0  0  0  0  0
   -7.8881   -0.3244    1.3894 S   0  0  0  0  0  0  0  0  0  0  0  0
   -5.3153   -1.1972    1.3400 N   0  0  0  0  0  0  0  0  0  0  0  0
   -5.6883   -2.5780    1.1745 C   0  0  0  0  0  0  0  0  0  0  0  0
   -5.5880   -3.4534    2.2587 C   0  0  0  0  0  0  0  0  0  0  0  0
   -5.9315   -4.7969    2.0925 C   0  0  0  0  0  0  0  0  0  0  0  0
   -6.3758   -5.2590    0.8502 C   0  0  0  0  0  0  0  0  0  0  0  0
   -6.4744   -4.3763   -0.2299 C   0  0  0  0  0  0  0  0  0  0  0  0
   -6.1288   -3.0329   -0.0715 C   0  0  0  0  0  0  0  0  0  0  0  0
   -3.9494   -0.8447    1.4214 C   0  0  0  0  0  0  0  0  0  0  0  0
   -3.0681   -1.6764    1.3632 O   0  0  0  0  0  0  0  0  0  0  0  0
   -0.4583    2.3537    1.8577 C   0  0  0  0  0  0  0  0  0  0  0  0
    0.9279    2.2761    1.8728 C   0  0  0  0  0  0  0  0  0  0  0  0
    1.7086    3.4069    1.9504 O   0  0  0  0  0  0  0  0  0  0  0  0
    2.0984    3.8043    3.2659 C   0  0  0  0  0  0  0  0  0  0  0  0
    4.1966    1.6017   -0.2191 C   0  0  0  0  0  0  0  0  0  0  0  0
    4.9152    1.3368   -1.1477 O   0  0  0  0  0  0  0  0  0  0  0  0
    3.7948    2.8438    0.0423 O   0  0  0  0  0  0  0  0  0  0  0  0
    6.6099   -0.1675    2.5928 H   0  0  0  0  0  0  0  0  0  0  0  0
    5.2426    0.8590    3.0854 H   0  0  0  0  0  0  0  0  0  0  0  0
    6.2592    1.3235    1.6949 H   0  0  0  0  0  0  0  0  0  0  0  0
    4.4680   -1.2007    1.8131 H   0  0  0  0  0  0  0  0  0  0  0  0
    5.4430   -0.6982    0.4183 H   0  0  0  0  0  0  0  0  0  0  0  0
    3.0729   -0.1805    0.1086 H   0  0  0  0  0  0  0  0  0  0  0  0
    1.2818   -1.0949    1.4728 H   0  0  0  0  0  0  0  0  0  0  0  0
   -1.1932   -0.9517    1.4362 H   0  0  0  0  0  0  0  0  0  0  0  0
   -2.9459    2.4801    1.7989 H   0  0  0  0  0  0  0  0  0  0  0  0
   -5.2412   -3.0816    3.2247 H   0  0  0  0  0  0  0  0  0  0  0  0
   -5.8526   -5.4840    2.9383 H   0  0  0  0  0  0  0  0  0  0  0  0
   -6.6461   -6.3102    0.7230 H   0  0  0  0  0  0  0  0  0  0  0  0
   -6.8217   -4.7343   -1.2020 H   0  0  0  0  0  0  0  0  0  0  0  0
   -6.2035   -2.3349   -0.9072 H   0  0  0  0  0  0  0  0  0  0  0  0
   -0.9183    3.3406    1.9470 H   0  0  0  0  0  0  0  0  0  0  0  0
    2.7051    4.7133    3.1561 H   0  0  0  0  0  0  0  0  0  0  0  0
    2.6957    3.0192    3.7587 H   0  0  0  0  0  0  0  0  0  0  0  0
    1.2129    4.0305    3.8835 H   0  0  0  0  0  0  0  0  0  0  0  0
    3.1990    2.8998    0.8195 H   0  0  0  0  0  0  0  0  0  0  0  0
  1  2  1  0
  1 30  1  0
  1 31  1  0
  1 32  1  0
  2  3  1  0
  2 33  1  0
  2 34  1  0
  3  4  1  0
  3 27  1  0
  3 35  1  6
  4  5  1  0
  5  6  2  0
  5 24  1  0
  6  7  1  0
  6 36  1  0
  7  8  2  0
  7 37  1  0
  8  9  1  0
  8 23  1  0
  9 10  2  0
  9 38  1  0
 10 11  1  0
 10 21  1  0
 11 12  1  0
 12 13  2  0
 12 14  1  0
 14 15  1  0
 14 21  1  0
 15 16  2  0
 15 20  1  0
 16 17  1  0
 16 39  1  0
 17 18  2  0
 17 40  1  0
 18 19  1  0
 18 41  1  0
 19 20  2  0
 19 42  1  0
 20 43  1  0
 21 22  2  0
 23 24  2  0
 23 44  1  0
 24 25  1  0
 25 26  1  0
 26 45  1  0
 26 46  1  0
 26 47  1  0
 27 28  2  0
 27 29  1  0
 29 48  1  0
M  END

