
     RDKit          3D

 49 51  0  0  0  0  0  0  0  0999 V2000
   10.1147    1.7571   -0.3559 C   0  0  0  0  0  0  0  0  0  0  0  0
    8.7134    1.5849   -0.9395 C   0  0  0  0  0  0  0  0  0  0  0  0
    7.6553    1.3428    0.1574 C   0  0  0  0  0  0  0  0  0  0  0  0
    6.2710    1.1854   -0.3797 C   0  0  0  0  0  0  0  0  0  0  0  0
    5.2737    2.1227   -0.6305 C   0  0  0  0  0  0  0  0  0  0  0  0
    5.3238    3.5934   -0.3988 C   0  0  0  0  0  0  0  0  0  0  0  0
    6.3175    4.1586    0.0170 O   0  0  0  0  0  0  0  0  0  0  0  0
    4.1307    4.2077   -0.7096 N   0  0  0  0  0  0  0  0  0  0  0  0
    3.9661    5.5381   -0.5784 N   0  0  0  0  0  0  0  0  0  0  0  0
    2.8253    6.0337   -0.8940 C   0  0  0  0  0  0  0  0  0  0  0  0
    2.5349    7.4640   -0.7915 C   0  0  0  0  0  0  0  0  0  0  0  0
    3.4957    8.3806   -0.3400 C   0  0  0  0  0  0  0  0  0  0  0  0
    3.1773    9.7355   -0.2575 C   0  0  0  0  0  0  0  0  0  0  0  0
    1.9111   10.2075   -0.6175 C   0  0  0  0  0  0  0  0  0  0  0  0
    1.5585   11.5133   -0.5535 O   0  0  0  0  0  0  0  0  0  0  0  0
    0.9297    9.2907   -1.0760 C   0  0  0  0  0  0  0  0  0  0  0  0
   -0.2692    9.8289   -1.4041 O   0  0  0  0  0  0  0  0  0  0  0  0
   -1.3098    8.9884   -1.8718 C   0  0  0  0  0  0  0  0  0  0  0  0
   -2.5211    9.8551   -2.1583 C   0  0  0  0  0  0  0  0  0  0  0  0
    1.2547    7.9355   -1.1563 C   0  0  0  0  0  0  0  0  0  0  0  0
    4.1760    1.4865   -1.1330 N   0  0  0  0  0  0  0  0  0  0  0  0
    4.4089    0.2280   -1.2266 N   0  0  0  0  0  0  0  0  0  0  0  0
    5.6825    0.0116   -0.7782 N   0  0  0  0  0  0  0  0  0  0  0  0
    6.1613   -1.3038   -0.7853 C   0  0  0  0  0  0  0  0  0  0  0  0
    7.4172   -1.6188   -0.6336 N   0  0  0  0  0  0  0  0  0  0  0  0
    7.4721   -2.9627   -0.7024 O   0  0  0  0  0  0  0  0  0  0  0  0
    6.2300   -3.5183   -0.9199 N   0  0  0  0  0  0  0  0  0  0  0  0
    5.3875   -2.5115   -0.9730 C   0  0  0  0  0  0  0  0  0  0  0  0
    4.0445   -2.6199   -1.1254 N   0  0  0  0  0  0  0  0  0  0  0  0
   10.8537    1.9432   -1.1509 H   0  0  0  0  0  0  0  0  0  0  0  0
   10.4339    0.8554    0.1924 H   0  0  0  0  0  0  0  0  0  0  0  0
   10.1545    2.6081    0.3437 H   0  0  0  0  0  0  0  0  0  0  0  0
    8.7045    0.7393   -1.6469 H   0  0  0  0  0  0  0  0  0  0  0  0
    8.4267    2.4870   -1.5045 H   0  0  0  0  0  0  0  0  0  0  0  0
    7.6381    2.2130    0.8285 H   0  0  0  0  0  0  0  0  0  0  0  0
    7.9292    0.4498    0.7391 H   0  0  0  0  0  0  0  0  0  0  0  0
    3.3715    3.6143   -1.0580 H   0  0  0  0  0  0  0  0  0  0  0  0
    2.0058    5.3853   -1.2615 H   0  0  0  0  0  0  0  0  0  0  0  0
    4.4854    8.0190   -0.0576 H   0  0  0  0  0  0  0  0  0  0  0  0
    3.9260   10.4529    0.0947 H   0  0  0  0  0  0  0  0  0  0  0  0
    2.3097   12.0270   -0.2284 H   0  0  0  0  0  0  0  0  0  0  0  0
   -1.5483    8.2208   -1.1103 H   0  0  0  0  0  0  0  0  0  0  0  0
   -0.9844    8.4549   -2.7858 H   0  0  0  0  0  0  0  0  0  0  0  0
   -2.8479   10.3779   -1.2467 H   0  0  0  0  0  0  0  0  0  0  0  0
   -3.3545    9.2362   -2.5253 H   0  0  0  0  0  0  0  0  0  0  0  0
   -2.2843   10.6118   -2.9216 H   0  0  0  0  0  0  0  0  0  0  0  0
    0.5107    7.2191   -1.5068 H   0  0  0  0  0  0  0  0  0  0  0  0
    3.6733   -3.5190   -1.4051 H   0  0  0  0  0  0  0  0  0  0  0  0
    3.5543   -1.7736   -1.3974 H   0  0  0  0  0  0  0  0  0  0  0  0
  1  2  1  0
  1 30  1  0
  1 31  1  0
  1 32  1  0
  2  3  1  0
  2 33  1  0
  2 34  1  0
  3  4  1  0
  3 35  1  0
  3 36  1  0
  4  5  2  0
  4 23  1  0
  5  6  1  0
  5 21  1  0
  6  7  2  0
  6  8  1  0
  8  9  1  0
  8 37  1  0
  9 10  2  0
 10 11  1  0
 10 38  1  0
 11 12  2  0
 11 20  1  0
 12 13  1  0
 12 39  1  0
 13 14  2  0
 13 40  1  0
 14 15  1  0
 14 16  1  0
 15 41  1  0
 16 17  1  0
 16 20  2  0
 17 18  1  0
 18 19  1  0
 18 42  1  0
 18 43  1  0
 19 44  1  0
 19 45  1  0
 19 46  1  0
 20 47  1  0
 21 22  2  0
 22 23  1  0
 23 24  1  0
 24 25  2  0
 24 28  1  0
 25 26  1  0
 26 27  1  0
 27 28  2  0
 28 29  1  0
 29 48  1  0
 29 49  1  0
M  END

