
     RDKit          3D

 47 48  0  0  0  0  0  0  0  0999 V2000
    3.9159   -0.2434   -1.9899 C   0  0  0  0  0  0  0  0  0  0  0  0
    4.9468    0.8678   -1.9133 C   0  0  0  0  0  0  0  0  0  0  0  0
    5.1560    1.2129   -0.5620 O   0  0  0  0  0  0  0  0  0  0  0  0
    6.0977    2.2506   -0.3659 C   0  0  0  0  0  0  0  0  0  0  0  0
    6.1243    2.6457    1.1029 C   0  0  0  0  0  0  0  0  0  0  0  0
    6.4782    1.4900    2.0628 C   0  0  1  0  0  0  0  0  0  0  0  0
    7.6547    0.7570    1.5671 N   0  0  0  0  0  0  0  0  0  0  0  0
    7.4545   -0.5386    1.0445 N   0  0  0  0  0  0  0  0  0  0  0  0
    6.7392    1.9699    3.5169 C   0  0  2  0  0  0  0  0  0  0  0  0
    6.8567    0.7961    4.5125 C   0  0  0  0  0  0  0  0  0  0  0  0
    5.4856    0.2814    4.9437 C   0  0  0  0  0  0  0  0  0  0  0  0
    4.6933    1.3057    5.5118 O   0  0  0  0  0  0  0  0  0  0  0  0
    4.4317    2.4461    4.6765 C   0  0  1  0  0  0  0  0  0  0  0  0
    3.3891    2.0929    3.5880 C   0  0  0  0  0  0  0  0  0  0  0  0
    2.0436    1.7081    4.2069 C   0  0  0  0  0  0  0  0  0  0  0  0
    1.5395    2.7281    5.0443 O   0  0  0  0  0  0  0  0  0  0  0  0
    2.4154    3.0174    6.1171 C   0  0  0  0  0  0  0  0  0  0  0  0
    3.7853    3.4784    5.6193 C   0  0  0  0  0  0  0  0  0  0  0  0
    5.7597    3.0048    4.1195 C   0  0  0  0  0  0  0  0  0  0  0  0
    3.7252   -0.5238   -3.0376 H   0  0  0  0  0  0  0  0  0  0  0  0
    2.9659    0.0797   -1.5365 H   0  0  0  0  0  0  0  0  0  0  0  0
    4.2643   -1.1379   -1.4500 H   0  0  0  0  0  0  0  0  0  0  0  0
    4.6011    1.7557   -2.4839 H   0  0  0  0  0  0  0  0  0  0  0  0
    5.9013    0.5462   -2.3823 H   0  0  0  0  0  0  0  0  0  0  0  0
    5.8251    3.1322   -0.9824 H   0  0  0  0  0  0  0  0  0  0  0  0
    7.1063    1.9223   -0.6852 H   0  0  0  0  0  0  0  0  0  0  0  0
    5.1424    3.0683    1.3671 H   0  0  0  0  0  0  0  0  0  0  0  0
    6.8696    3.4531    1.2162 H   0  0  0  0  0  0  0  0  0  0  0  0
    5.6273    0.7852    2.0503 H   0  0  0  0  0  0  0  0  0  0  0  0
    8.4020    0.7168    2.2535 H   0  0  0  0  0  0  0  0  0  0  0  0
    7.0537   -0.4471    0.1114 H   0  0  0  0  0  0  0  0  0  0  0  0
    6.7558   -1.0565    1.5933 H   0  0  0  0  0  0  0  0  0  0  0  0
    7.7217    2.4773    3.4700 H   0  0  0  0  0  0  0  0  0  0  0  0
    7.3939    1.1388    5.4132 H   0  0  0  0  0  0  0  0  0  0  0  0
    7.4467   -0.0323    4.0866 H   0  0  0  0  0  0  0  0  0  0  0  0
    5.5885   -0.4881    5.7248 H   0  0  0  0  0  0  0  0  0  0  0  0
    4.9653   -0.1975    4.0901 H   0  0  0  0  0  0  0  0  0  0  0  0
    3.7411    1.2793    2.9361 H   0  0  0  0  0  0  0  0  0  0  0  0
    3.2443    2.9752    2.9428 H   0  0  0  0  0  0  0  0  0  0  0  0
    2.1529    0.7627    4.7758 H   0  0  0  0  0  0  0  0  0  0  0  0
    1.2902    1.5442    3.4208 H   0  0  0  0  0  0  0  0  0  0  0  0
    2.5408    2.1263    6.7627 H   0  0  0  0  0  0  0  0  0  0  0  0
    1.9325    3.8065    6.7142 H   0  0  0  0  0  0  0  0  0  0  0  0
    4.4578    3.6479    6.4760 H   0  0  0  0  0  0  0  0  0  0  0  0
    3.6758    4.4335    5.0788 H   0  0  0  0  0  0  0  0  0  0  0  0
    6.2807    3.4719    4.9727 H   0  0  0  0  0  0  0  0  0  0  0  0
    5.5469    3.8194    3.4118 H   0  0  0  0  0  0  0  0  0  0  0  0
  1  2  1  0
  1 20  1  0
  1 21  1  0
  1 22  1  0
  2  3  1  0
  2 23  1  0
  2 24  1  0
  3  4  1  0
  4  5  1  0
  4 25  1  0
  4 26  1  0
  5  6  1  0
  5 27  1  0
  5 28  1  0
  6  7  1  0
  6  9  1  0
  6 29  1  1
  7  8  1  0
  7 30  1  0
  8 31  1  0
  8 32  1  0
  9 10  1  0
  9 19  1  0
  9 33  1  6
 10 11  1  0
 10 34  1  0
 10 35  1  0
 11 12  1  0
 11 36  1  0
 11 37  1  0
 13 12  1  1
 13 14  1  0
 13 18  1  0
 13 19  1  0
 14 15  1  0
 14 38  1  0
 14 39  1  0
 15 16  1  0
 15 40  1  0
 15 41  1  0
 16 17  1  0
 17 18  1  0
 17 42  1  0
 17 43  1  0
 18 44  1  0
 18 45  1  0
 19 46  1  0
 19 47  1  0
M  END

