
     RDKit          3D

 54 55  0  0  0  0  0  0  0  0999 V2000
   -0.0574    1.4419    0.8984 C   0  0  0  0  0  0  0  0  0  0  0  0
    1.3640    0.9429    0.6750 C   0  0  1  0  0  0  0  0  0  0  0  0
    2.1850    1.9736    0.0958 O   0  0  0  0  0  0  0  0  0  0  0  0
    2.2838    2.0208   -1.2585 C   0  0  0  0  0  0  0  0  0  0  0  0
    1.7464    1.2201   -1.9850 O   0  0  0  0  0  0  0  0  0  0  0  0
    3.1273    3.1578   -1.7280 C   0  0  0  0  0  0  0  0  0  0  0  0
    3.6642    4.1172   -0.8565 C   0  0  0  0  0  0  0  0  0  0  0  0
    4.4439    5.1565   -1.3692 C   0  0  0  0  0  0  0  0  0  0  0  0
    4.6871    5.2490   -2.7405 C   0  0  0  0  0  0  0  0  0  0  0  0
    4.1479    4.2972   -3.6267 C   0  0  0  0  0  0  0  0  0  0  0  0
    4.4067    4.3888   -5.1035 C   0  0  0  0  0  0  0  0  0  0  0  0
    6.1577    4.1412   -5.6086 S   0  0  1  0  0  0  0  0  0  0  0  0
    6.5761    2.4706   -5.0683 C   0  0  0  0  0  0  0  0  0  0  0  0
    6.1708    4.1607   -7.0766 O   0  0  0  0  0  0  0  0  0  0  0  0
    6.9867    5.0813   -4.8388 O   0  0  0  0  0  0  0  0  0  0  0  0
    3.3721    3.2553   -3.1069 C   0  0  0  0  0  0  0  0  0  0  0  0
    2.0081    0.4509    1.9776 C   0  0  0  0  0  0  0  0  0  0  0  0
    1.3826   -0.3077    2.7059 O   0  0  0  0  0  0  0  0  0  0  0  0
    3.2776    0.8887    2.2163 N   0  0  0  0  0  0  0  0  0  0  0  0
    4.1560    0.5954    3.3081 C   0  0  0  0  0  0  0  0  0  0  0  0
    5.2546    1.1182    3.3190 O   0  0  0  0  0  0  0  0  0  0  0  0
    3.6500   -0.2547    4.2289 N   0  0  0  0  0  0  0  0  0  0  0  0
    4.4009   -0.6655    5.4135 C   0  0  1  0  0  0  0  0  0  0  0  0
    3.7112   -0.1857    6.7066 C   0  0  0  0  0  0  0  0  0  0  0  0
    2.3971   -0.9313    6.9803 C   0  0  0  0  0  0  0  0  0  0  0  0
    2.6067   -2.4523    7.0010 C   0  0  0  0  0  0  0  0  0  0  0  0
    3.2850   -2.9470    5.7153 C   0  0  0  0  0  0  0  0  0  0  0  0
    4.5958   -2.1945    5.4444 C   0  0  0  0  0  0  0  0  0  0  0  0
   -0.5340    1.6651   -0.0667 H   0  0  0  0  0  0  0  0  0  0  0  0
   -0.0575    2.3504    1.5199 H   0  0  0  0  0  0  0  0  0  0  0  0
   -0.6361    0.6626    1.4126 H   0  0  0  0  0  0  0  0  0  0  0  0
    1.3497    0.0861   -0.0180 H   0  0  0  0  0  0  0  0  0  0  0  0
    3.4645    4.0519    0.2136 H   0  0  0  0  0  0  0  0  0  0  0  0
    4.8656    5.9036   -0.6929 H   0  0  0  0  0  0  0  0  0  0  0  0
    5.3132    6.0516   -3.1345 H   0  0  0  0  0  0  0  0  0  0  0  0
    4.2198    5.3952   -5.5107 H   0  0  0  0  0  0  0  0  0  0  0  0
    3.8209    3.6670   -5.6896 H   0  0  0  0  0  0  0  0  0  0  0  0
    5.9391    1.7483   -5.5953 H   0  0  0  0  0  0  0  0  0  0  0  0
    6.4686    2.3973   -3.9786 H   0  0  0  0  0  0  0  0  0  0  0  0
    7.6270    2.3401   -5.3611 H   0  0  0  0  0  0  0  0  0  0  0  0
    2.9327    2.5005   -3.7631 H   0  0  0  0  0  0  0  0  0  0  0  0
    3.6845    1.5326    1.5452 H   0  0  0  0  0  0  0  0  0  0  0  0
    2.7010   -0.5912    4.0614 H   0  0  0  0  0  0  0  0  0  0  0  0
    5.3798   -0.1753    5.3216 H   0  0  0  0  0  0  0  0  0  0  0  0
    3.5425    0.9020    6.6508 H   0  0  0  0  0  0  0  0  0  0  0  0
    4.4073   -0.3560    7.5473 H   0  0  0  0  0  0  0  0  0  0  0  0
    1.6555   -0.6731    6.2017 H   0  0  0  0  0  0  0  0  0  0  0  0
    1.9626   -0.5901    7.9347 H   0  0  0  0  0  0  0  0  0  0  0  0
    1.6445   -2.9701    7.1505 H   0  0  0  0  0  0  0  0  0  0  0  0
    3.2401   -2.7174    7.8680 H   0  0  0  0  0  0  0  0  0  0  0  0
    2.5960   -2.8120    4.8608 H   0  0  0  0  0  0  0  0  0  0  0  0
    3.4793   -4.0308    5.7758 H   0  0  0  0  0  0  0  0  0  0  0  0
    5.0512   -2.5261    4.4971 H   0  0  0  0  0  0  0  0  0  0  0  0
    5.3207   -2.4289    6.2444 H   0  0  0  0  0  0  0  0  0  0  0  0
  1  2  1  0
  1 29  1  0
  1 30  1  0
  1 31  1  0
  2  3  1  0
  2 17  1  0
  2 32  1  6
  3  4  1  0
  4  5  2  0
  4  6  1  0
  6  7  2  0
  6 16  1  0
  7  8  1  0
  7 33  1  0
  8  9  2  0
  8 34  1  0
  9 10  1  0
  9 35  1  0
 10 11  1  0
 10 16  2  0
 12 11  1  1
 11 36  1  0
 11 37  1  0
 12 13  1  0
 12 14  2  0
 12 15  2  0
 13 38  1  0
 13 39  1  0
 13 40  1  0
 16 41  1  0
 17 18  2  0
 17 19  1  0
 19 20  1  0
 19 42  1  0
 20 21  2  0
 20 22  1  0
 22 23  1  0
 22 43  1  0
 23 24  1  0
 23 28  1  0
 23 44  1  6
 24 25  1  0
 24 45  1  0
 24 46  1  0
 25 26  1  0
 25 47  1  0
 25 48  1  0
 26 27  1  0
 26 49  1  0
 26 50  1  0
 27 28  1  0
 27 51  1  0
 27 52  1  0
 28 53  1  0
 28 54  1  0
M  END

