
     RDKit          3D

 39 41  0  0  0  0  0  0  0  0999 V2000
    0.7068    0.0959    1.3665 O   0  0  0  0  0  0  0  0  0  0  0  0
    1.8310   -0.3684    1.3979 C   0  0  0  0  0  0  0  0  0  0  0  0
    2.1626   -1.6371    1.8229 N   0  0  0  0  0  0  0  0  0  0  0  0
    1.3107   -2.6530    2.2894 C   0  0  0  0  0  0  0  0  0  0  0  0
    1.9024   -3.8764    2.6585 C   0  0  0  0  0  0  0  0  0  0  0  0
    1.1218   -4.9303    3.1316 C   0  0  0  0  0  0  0  0  0  0  0  0
   -0.2642   -4.7866    3.2467 C   0  0  0  0  0  0  0  0  0  0  0  0
   -0.8517   -3.5725    2.8803 C   0  0  0  0  0  0  0  0  0  0  0  0
   -0.0842   -2.5064    2.4043 C   0  0  0  0  0  0  0  0  0  0  0  0
    2.9271    0.3892    0.9732 N   0  0  0  0  0  0  0  0  0  0  0  0
    4.2762    0.0466    1.0576 C   0  0  0  0  0  0  0  0  0  0  0  0
    5.1796   -0.5605   -0.3268 S   0  0  0  0  0  0  0  0  0  0  0  0
    6.6219   -0.6741    0.6041 C   0  0  0  0  0  0  0  0  0  0  0  0
    6.4470   -0.2753    1.9068 C   0  0  0  0  0  0  0  0  0  0  0  0
    5.1020    0.1426    2.1703 C   0  0  0  0  0  0  0  0  0  0  0  0
    4.6048    0.5936    3.3399 O   0  0  0  0  0  0  0  0  0  0  0  0
    5.4467    0.6028    4.4863 C   0  0  0  0  0  0  0  0  0  0  0  0
    4.6529    1.0403    5.6934 C   0  0  0  0  0  0  0  0  0  0  0  0
    3.3198    0.6374    5.8617 C   0  0  0  0  0  0  0  0  0  0  0  0
    2.6095    1.0103    7.0050 C   0  0  0  0  0  0  0  0  0  0  0  0
    3.2233    1.7833    7.9962 C   0  0  0  0  0  0  0  0  0  0  0  0
    4.5509    2.1885    7.8345 C   0  0  0  0  0  0  0  0  0  0  0  0
    5.2588    1.8231    6.6857 C   0  0  0  0  0  0  0  0  0  0  0  0
    3.1482   -1.8734    1.7812 H   0  0  0  0  0  0  0  0  0  0  0  0
    2.9866   -3.9987    2.5713 H   0  0  0  0  0  0  0  0  0  0  0  0
    1.6037   -5.8709    3.4114 H   0  0  0  0  0  0  0  0  0  0  0  0
   -0.8778   -5.6113    3.6168 H   0  0  0  0  0  0  0  0  0  0  0  0
   -1.9344   -3.4446    2.9637 H   0  0  0  0  0  0  0  0  0  0  0  0
   -0.5434   -1.5628    2.1191 H   0  0  0  0  0  0  0  0  0  0  0  0
    2.6622    1.3399    0.7299 H   0  0  0  0  0  0  0  0  0  0  0  0
    7.5434   -1.0300    0.1452 H   0  0  0  0  0  0  0  0  0  0  0  0
    7.2516   -0.2740    2.6409 H   0  0  0  0  0  0  0  0  0  0  0  0
    6.3038    1.2821    4.3262 H   0  0  0  0  0  0  0  0  0  0  0  0
    5.8566   -0.4140    4.6470 H   0  0  0  0  0  0  0  0  0  0  0  0
    2.8368    0.0401    5.0859 H   0  0  0  0  0  0  0  0  0  0  0  0
    1.5694    0.6954    7.1215 H   0  0  0  0  0  0  0  0  0  0  0  0
    2.6656    2.0737    8.8903 H   0  0  0  0  0  0  0  0  0  0  0  0
    5.0358    2.7999    8.5998 H   0  0  0  0  0  0  0  0  0  0  0  0
    6.2937    2.1551    6.5590 H   0  0  0  0  0  0  0  0  0  0  0  0
  1  2  2  0
  2  3  1  0
  2 10  1  0
  3  4  1  0
  3 24  1  0
  4  5  2  0
  4  9  1  0
  5  6  1  0
  5 25  1  0
  6  7  2  0
  6 26  1  0
  7  8  1  0
  7 27  1  0
  8  9  2  0
  8 28  1  0
  9 29  1  0
 10 11  1  0
 10 30  1  0
 11 12  1  0
 11 15  2  0
 12 13  1  0
 13 14  2  0
 13 31  1  0
 14 15  1  0
 14 32  1  0
 15 16  1  0
 16 17  1  0
 17 18  1  0
 17 33  1  0
 17 34  1  0
 18 19  2  0
 18 23  1  0
 19 20  1  0
 19 35  1  0
 20 21  2  0
 20 36  1  0
 21 22  1  0
 21 37  1  0
 22 23  2  0
 22 38  1  0
 23 39  1  0
M  END

