
     RDKit          3D

 37 38  0  0  0  0  0  0  0  0999 V2000
    2.8893   -1.1220    2.5596 C   0  0  0  0  0  0  0  0  0  0  0  0
    3.4424   -0.4889    1.3037 C   0  0  0  0  0  0  0  0  0  0  0  0
    4.2457    0.6560    1.4087 C   0  0  0  0  0  0  0  0  0  0  0  0
    4.7802    1.2498    0.2689 C   0  0  0  0  0  0  0  0  0  0  0  0
    5.5440    2.3441    0.4027 F   0  0  0  0  0  0  0  0  0  0  0  0
    4.5439    0.7320   -0.9997 C   0  0  0  0  0  0  0  0  0  0  0  0
    3.7465   -0.4090   -1.1042 C   0  0  0  0  0  0  0  0  0  0  0  0
    3.1867   -1.0325    0.0216 C   0  0  0  0  0  0  0  0  0  0  0  0
    2.3011   -2.2458   -0.1709 C   0  0  0  0  0  0  0  0  0  0  0  0
    0.8223   -1.8811   -0.3751 C   0  0  0  0  0  0  0  0  0  0  0  0
    0.0376   -3.0935   -0.5704 N   0  0  0  0  0  0  0  0  0  0  0  0
   -1.3249   -3.2456   -0.5041 C   0  0  0  0  0  0  0  0  0  0  0  0
   -1.7000   -4.4747   -0.0897 N   0  0  0  0  0  0  0  0  0  0  0  0
   -2.9832   -4.7746    0.0319 C   0  0  0  0  0  0  0  0  0  0  0  0
   -3.9828   -3.8409   -0.2456 C   0  0  0  0  0  0  0  0  0  0  0  0
   -5.3888   -4.1887   -0.0788 N   0  0  0  0  0  0  0  0  0  0  0  0
   -5.6518   -5.3158    0.3184 O   0  0  0  0  0  0  0  0  0  0  0  0
   -6.2216   -3.3323   -0.3455 O   0  0  0  0  0  0  0  0  0  0  0  0
   -3.6181   -2.5742   -0.7130 C   0  0  0  0  0  0  0  0  0  0  0  0
   -2.2784   -2.2413   -0.8742 C   0  0  0  0  0  0  0  0  0  0  0  0
   -1.9066   -0.9125   -1.4878 C   0  0  0  0  0  0  0  0  0  0  0  0
    3.1648   -0.5400    3.4503 H   0  0  0  0  0  0  0  0  0  0  0  0
    3.2754   -2.1458    2.7004 H   0  0  0  0  0  0  0  0  0  0  0  0
    1.7899   -1.1954    2.5385 H   0  0  0  0  0  0  0  0  0  0  0  0
    4.4662    1.0986    2.3825 H   0  0  0  0  0  0  0  0  0  0  0  0
    4.9818    1.2144   -1.8753 H   0  0  0  0  0  0  0  0  0  0  0  0
    3.5589   -0.8332   -2.0950 H   0  0  0  0  0  0  0  0  0  0  0  0
    2.3841   -2.9288    0.6903 H   0  0  0  0  0  0  0  0  0  0  0  0
    2.6382   -2.8133   -1.0542 H   0  0  0  0  0  0  0  0  0  0  0  0
    0.7470   -1.2130   -1.2455 H   0  0  0  0  0  0  0  0  0  0  0  0
    0.4593   -1.3080    0.4986 H   0  0  0  0  0  0  0  0  0  0  0  0
    0.4896   -3.9496   -0.2585 H   0  0  0  0  0  0  0  0  0  0  0  0
   -3.2503   -5.7811    0.3653 H   0  0  0  0  0  0  0  0  0  0  0  0
   -4.4062   -1.8648   -0.9697 H   0  0  0  0  0  0  0  0  0  0  0  0
   -2.8119   -0.3881   -1.8251 H   0  0  0  0  0  0  0  0  0  0  0  0
   -1.2544   -1.0462   -2.3658 H   0  0  0  0  0  0  0  0  0  0  0  0
   -1.3828   -0.2437   -0.7877 H   0  0  0  0  0  0  0  0  0  0  0  0
  1  2  1  0
  1 22  1  0
  1 23  1  0
  1 24  1  0
  2  3  2  0
  2  8  1  0
  3  4  1  0
  3 25  1  0
  4  5  1  0
  4  6  2  0
  6  7  1  0
  6 26  1  0
  7  8  2  0
  7 27  1  0
  8  9  1  0
  9 10  1  0
  9 28  1  0
  9 29  1  0
 10 11  1  0
 10 30  1  0
 10 31  1  0
 11 12  1  0
 11 32  1  0
 12 13  2  0
 12 20  1  0
 13 14  1  0
 14 15  2  0
 14 33  1  0
 15 16  1  0
 15 19  1  0
 16 17  2  0
 16 18  1  0
 19 20  2  0
 19 34  1  0
 20 21  1  0
 21 35  1  0
 21 36  1  0
 21 37  1  0
M  CHG  2  16   1  18  -1
M  END

