
     RDKit          3D

 35 37  0  0  0  0  0  0  0  0999 V2000
    1.4150   -0.0970    0.1857 C   0  0  0  0  0  0  0  0  0  0  0  0
    2.7915   -0.0329   -0.2523 N   0  0  0  0  0  0  0  0  0  0  0  0
    3.5991   -1.1635   -0.5314 C   0  0  0  0  0  0  0  0  0  0  0  0
    3.1937   -2.3029   -0.4551 O   0  0  0  0  0  0  0  0  0  0  0  0
    4.9441   -0.6684   -0.9008 C   0  0  0  0  0  0  0  0  0  0  0  0
    6.0461   -1.6321   -1.0960 C   0  0  0  0  0  0  0  0  0  0  0  0
    7.2448   -1.5362   -0.3606 C   0  0  0  0  0  0  0  0  0  0  0  0
    8.2667   -2.4762   -0.5192 C   0  0  0  0  0  0  0  0  0  0  0  0
    8.1056   -3.5454   -1.4044 C   0  0  0  0  0  0  0  0  0  0  0  0
    6.9101   -3.6715   -2.1199 C   0  0  0  0  0  0  0  0  0  0  0  0
    5.8910   -2.7308   -1.9648 C   0  0  0  0  0  0  0  0  0  0  0  0
    4.8972    0.7148   -0.8984 C   0  0  0  0  0  0  0  0  0  0  0  0
    5.7991    1.6404   -1.2931 N   0  0  0  0  0  0  0  0  0  0  0  0
    5.6175    3.1064   -1.2153 C   0  0  0  0  0  0  0  0  0  0  0  0
    6.5693    3.6426   -2.2853 C   0  0  0  0  0  0  0  0  0  0  0  0
    7.7261    2.6384   -2.2596 C   0  0  0  0  0  0  0  0  0  0  0  0
    7.0268    1.2946   -2.0266 C   0  0  0  0  0  0  0  0  0  0  0  0
    3.4984    1.1291   -0.4282 C   0  0  0  0  0  0  0  0  0  0  0  0
    3.0642    2.2479   -0.2424 O   0  0  0  0  0  0  0  0  0  0  0  0
    1.1203   -1.1545    0.1860 H   0  0  0  0  0  0  0  0  0  0  0  0
    0.7607    0.4714   -0.4935 H   0  0  0  0  0  0  0  0  0  0  0  0
    1.3013    0.3165    1.2004 H   0  0  0  0  0  0  0  0  0  0  0  0
    7.3608   -0.7297    0.3681 H   0  0  0  0  0  0  0  0  0  0  0  0
    9.1867   -2.3796    0.0634 H   0  0  0  0  0  0  0  0  0  0  0  0
    8.9021   -4.2838   -1.5272 H   0  0  0  0  0  0  0  0  0  0  0  0
    6.7693   -4.5115   -2.8053 H   0  0  0  0  0  0  0  0  0  0  0  0
    4.9585   -2.8426   -2.5203 H   0  0  0  0  0  0  0  0  0  0  0  0
    5.8990    3.4688   -0.2089 H   0  0  0  0  0  0  0  0  0  0  0  0
    4.5701    3.3828   -1.3717 H   0  0  0  0  0  0  0  0  0  0  0  0
    6.8821    4.6778   -2.0839 H   0  0  0  0  0  0  0  0  0  0  0  0
    6.0732    3.6286   -3.2705 H   0  0  0  0  0  0  0  0  0  0  0  0
    8.4042    2.8620   -1.4190 H   0  0  0  0  0  0  0  0  0  0  0  0
    8.3297    2.6368   -3.1789 H   0  0  0  0  0  0  0  0  0  0  0  0
    7.6520    0.5874   -1.4648 H   0  0  0  0  0  0  0  0  0  0  0  0
    6.7568    0.7936   -2.9747 H   0  0  0  0  0  0  0  0  0  0  0  0
  1  2  1  0
  1 20  1  0
  1 21  1  0
  1 22  1  0
  2  3  1  0
  2 18  1  0
  3  4  2  0
  3  5  1  0
  5  6  1  0
  5 12  2  0
  6  7  2  0
  6 11  1  0
  7  8  1  0
  7 23  1  0
  8  9  2  0
  8 24  1  0
  9 10  1  0
  9 25  1  0
 10 11  2  0
 10 26  1  0
 11 27  1  0
 12 13  1  0
 12 18  1  0
 13 14  1  0
 13 17  1  0
 14 15  1  0
 14 28  1  0
 14 29  1  0
 15 16  1  0
 15 30  1  0
 15 31  1  0
 16 17  1  0
 16 32  1  0
 16 33  1  0
 17 34  1  0
 17 35  1  0
 18 19  2  0
M  END

