
     RDKit          3D

 71 76  0  0  0  0  0  0  0  0999 V2000
    1.3663    0.9422   -0.3778 O   0  0  0  0  0  0  0  0  0  0  0  0
    1.8251   -0.1386   -0.0381 C   0  0  0  0  0  0  0  0  0  0  0  0
    1.4078   -0.7388    1.3170 C   0  0  0  0  0  0  0  0  0  0  0  0
    2.4768   -0.7055    2.2977 N   0  0  0  0  0  0  0  0  0  0  0  0
    3.2679    0.4021    2.5626 C   0  0  0  0  0  0  0  0  0  0  0  0
    4.1428    0.1250    3.5830 C   0  0  0  0  0  0  0  0  0  0  0  0
    3.8884   -1.2277    3.9977 C   0  0  0  0  0  0  0  0  0  0  0  0
    4.4413   -2.0748    4.9772 C   0  0  0  0  0  0  0  0  0  0  0  0
    3.9393   -3.3642    5.1215 C   0  0  0  0  0  0  0  0  0  0  0  0
    2.8864   -3.8290    4.3044 C   0  0  0  0  0  0  0  0  0  0  0  0
    2.3169   -3.0159    3.3269 C   0  0  0  0  0  0  0  0  0  0  0  0
    2.8290   -1.7177    3.1759 C   0  0  0  0  0  0  0  0  0  0  0  0
    2.7114   -0.8413   -0.8102 N   0  0  0  0  0  0  0  0  0  0  0  0
    3.3612   -2.1049   -0.4789 C   0  0  0  0  0  0  0  0  0  0  0  0
    3.2188   -3.1089   -1.6228 C   0  0  0  0  0  0  0  0  0  0  0  0
    3.6830   -2.5314   -2.8795 N   0  0  0  0  0  0  0  0  0  0  0  0
    4.0762   -3.4073   -3.8957 C   0  0  0  0  0  0  0  0  0  0  0  0
    4.5101   -2.9608   -5.1710 C   0  0  0  0  0  0  0  0  0  0  0  0
    4.9176   -3.8998   -6.0895 C   0  0  0  0  0  0  0  0  0  0  0  0
    4.8807   -5.2727   -5.7168 C   0  0  0  0  0  0  0  0  0  0  0  0
    5.2134   -6.3062   -6.5820 N   0  0  0  0  0  0  0  0  0  0  0  0
    5.4619   -7.6372   -6.0222 C   0  0  0  0  0  0  0  0  0  0  0  0
    5.2074   -8.7260   -7.0694 C   0  0  0  0  0  0  0  0  0  0  0  0
    5.9285   -8.5137   -8.3225 N   0  0  0  0  0  0  0  0  0  0  0  0
    7.3311   -8.9167   -8.3197 C   0  0  0  0  0  0  0  0  0  0  0  0
    7.5003  -10.4072   -8.6187 C   0  0  1  0  0  0  0  0  0  0  0  0
    7.0755  -10.8600  -10.0200 C   0  0  0  0  0  0  0  0  0  0  0  0
    7.9859  -12.0727  -10.2454 C   0  0  0  0  0  0  0  0  0  0  0  0
    9.2796  -11.6264   -9.5518 C   0  0  0  0  0  0  0  0  0  0  0  0
    8.8886  -10.7309   -8.5156 O   0  0  0  0  0  0  0  0  0  0  0  0
    5.6294   -7.1898   -8.8410 C   0  0  0  0  0  0  0  0  0  0  0  0
    5.8874   -6.0448   -7.8464 C   0  0  0  0  0  0  0  0  0  0  0  0
    4.4962   -5.6130   -4.4811 N   0  0  0  0  0  0  0  0  0  0  0  0
    4.0865   -4.7099   -3.6081 N   0  0  0  0  0  0  0  0  0  0  0  0
    3.0277   -1.2713   -3.2095 C   0  0  0  0  0  0  0  0  0  0  0  0
    3.1735   -0.2665   -2.0678 C   0  0  0  0  0  0  0  0  0  0  0  0
    1.0667   -1.7768    1.2041 H   0  0  0  0  0  0  0  0  0  0  0  0
    0.5483   -0.1351    1.6473 H   0  0  0  0  0  0  0  0  0  0  0  0
    3.1285    1.3145    1.9848 H   0  0  0  0  0  0  0  0  0  0  0  0
    4.8832    0.8085    3.9933 H   0  0  0  0  0  0  0  0  0  0  0  0
    5.2536   -1.7196    5.6169 H   0  0  0  0  0  0  0  0  0  0  0  0
    4.3609   -4.0289    5.8796 H   0  0  0  0  0  0  0  0  0  0  0  0
    2.5058   -4.8439    4.4434 H   0  0  0  0  0  0  0  0  0  0  0  0
    1.4922   -3.3855    2.7128 H   0  0  0  0  0  0  0  0  0  0  0  0
    2.9374   -2.5354    0.4346 H   0  0  0  0  0  0  0  0  0  0  0  0
    4.4341   -1.9209   -0.2841 H   0  0  0  0  0  0  0  0  0  0  0  0
    2.1585   -3.4301   -1.7050 H   0  0  0  0  0  0  0  0  0  0  0  0
    3.8055   -4.0106   -1.4123 H   0  0  0  0  0  0  0  0  0  0  0  0
    4.5521   -1.9018   -5.4272 H   0  0  0  0  0  0  0  0  0  0  0  0
    5.2696   -3.5764   -7.0683 H   0  0  0  0  0  0  0  0  0  0  0  0
    4.8076   -7.7717   -5.1534 H   0  0  0  0  0  0  0  0  0  0  0  0
    6.5052   -7.7007   -5.6470 H   0  0  0  0  0  0  0  0  0  0  0  0
    4.1258   -8.7579   -7.2930 H   0  0  0  0  0  0  0  0  0  0  0  0
    5.4768   -9.7059   -6.6465 H   0  0  0  0  0  0  0  0  0  0  0  0
    7.8589   -8.6960   -7.3694 H   0  0  0  0  0  0  0  0  0  0  0  0
    7.8676   -8.3565   -9.1028 H   0  0  0  0  0  0  0  0  0  0  0  0
    6.9391  -10.9932   -7.8611 H   0  0  0  0  0  0  0  0  0  0  0  0
    7.2984  -10.0667  -10.7548 H   0  0  0  0  0  0  0  0  0  0  0  0
    6.0024  -11.0855  -10.0871 H   0  0  0  0  0  0  0  0  0  0  0  0
    8.1333  -12.3248  -11.3066 H   0  0  0  0  0  0  0  0  0  0  0  0
    7.5678  -12.9618   -9.7448 H   0  0  0  0  0  0  0  0  0  0  0  0
    9.9528  -11.1038  -10.2593 H   0  0  0  0  0  0  0  0  0  0  0  0
    9.8459  -12.4673   -9.1155 H   0  0  0  0  0  0  0  0  0  0  0  0
    4.5592   -7.1620   -9.1174 H   0  0  0  0  0  0  0  0  0  0  0  0
    6.2088   -7.0116   -9.7605 H   0  0  0  0  0  0  0  0  0  0  0  0
    5.5033   -5.1181   -8.2948 H   0  0  0  0  0  0  0  0  0  0  0  0
    6.9806   -5.9060   -7.6962 H   0  0  0  0  0  0  0  0  0  0  0  0
    1.9483   -1.4305   -3.4208 H   0  0  0  0  0  0  0  0  0  0  0  0
    3.4746   -0.8315   -4.1102 H   0  0  0  0  0  0  0  0  0  0  0  0
    2.5840    0.6375   -2.2630 H   0  0  0  0  0  0  0  0  0  0  0  0
    4.2376    0.0195   -1.9689 H   0  0  0  0  0  0  0  0  0  0  0  0
  1  2  2  0
  2  3  1  0
  2 13  1  0
  3  4  1  0
  3 37  1  0
  3 38  1  0
  4  5  1  0
  4 12  1  0
  5  6  2  0
  5 39  1  0
  6  7  1  0
  6 40  1  0
  7  8  1  0
  7 12  2  0
  8  9  2  0
  8 41  1  0
  9 10  1  0
  9 42  1  0
 10 11  2  0
 10 43  1  0
 11 12  1  0
 11 44  1  0
 13 14  1  0
 13 36  1  0
 14 15  1  0
 14 45  1  0
 14 46  1  0
 15 16  1  0
 15 47  1  0
 15 48  1  0
 16 17  1  0
 16 35  1  0
 17 18  2  0
 17 34  1  0
 18 19  1  0
 18 49  1  0
 19 20  2  0
 19 50  1  0
 20 21  1  0
 20 33  1  0
 21 22  1  0
 21 32  1  0
 22 23  1  0
 22 51  1  0
 22 52  1  0
 23 24  1  0
 23 53  1  0
 23 54  1  0
 24 25  1  0
 24 31  1  0
 25 26  1  0
 25 55  1  0
 25 56  1  0
 26 27  1  0
 26 30  1  0
 26 57  1  1
 27 28  1  0
 27 58  1  0
 27 59  1  0
 28 29  1  0
 28 60  1  0
 28 61  1  0
 29 30  1  0
 29 62  1  0
 29 63  1  0
 31 32  1  0
 31 64  1  0
 31 65  1  0
 32 66  1  0
 32 67  1  0
 33 34  2  0
 35 36  1  0
 35 68  1  0
 35 69  1  0
 36 70  1  0
 36 71  1  0
M  END

