
     RDKit          3D

 29 31  0  0  0  0  0  0  0  0999 V2000
   -1.3414   -0.2447    0.3978 C   0  0  0  0  0  0  0  0  0  0  0  0
   -0.6120    0.5341    1.3014 C   0  0  0  0  0  0  0  0  0  0  0  0
    0.7821    0.5584    1.2300 C   0  0  0  0  0  0  0  0  0  0  0  0
    1.4521   -0.2008    0.2582 C   0  0  0  0  0  0  0  0  0  0  0  0
    2.8660   -0.1030    0.2725 N   0  0  0  0  0  0  0  0  0  0  0  0
    3.4619   -0.8599   -0.5255 N   0  0  0  0  0  0  0  0  0  0  0  0
    4.8627   -0.7409   -0.5748 C   0  0  0  0  0  0  0  0  0  0  0  0
    5.5750   -1.9247   -0.7199 C   0  0  0  0  0  0  0  0  0  0  0  0
    6.9855   -1.9362   -0.7525 C   0  0  0  0  0  0  0  0  0  0  0  0
    7.6920   -0.7527   -0.6824 C   0  0  0  0  0  0  0  0  0  0  0  0
    7.0041    0.4878   -0.5980 C   0  0  0  0  0  0  0  0  0  0  0  0
    7.6833    1.7362   -0.5576 C   0  0  0  0  0  0  0  0  0  0  0  0
    6.9572    2.9038   -0.5036 C   0  0  0  0  0  0  0  0  0  0  0  0
    5.5402    2.8177   -0.5194 C   0  0  0  0  0  0  0  0  0  0  0  0
    4.8757    1.6846   -0.5420 N   0  0  0  0  0  0  0  0  0  0  0  0
    5.5673    0.5182   -0.5536 C   0  0  0  0  0  0  0  0  0  0  0  0
    0.7162   -0.9820   -0.6531 C   0  0  0  0  0  0  0  0  0  0  0  0
   -0.6739   -0.9999   -0.5784 C   0  0  0  0  0  0  0  0  0  0  0  0
   -2.4332   -0.2632    0.4488 H   0  0  0  0  0  0  0  0  0  0  0  0
   -1.1311    1.1248    2.0602 H   0  0  0  0  0  0  0  0  0  0  0  0
    1.3841    1.1592    1.9149 H   0  0  0  0  0  0  0  0  0  0  0  0
    5.0074   -2.8556   -0.7796 H   0  0  0  0  0  0  0  0  0  0  0  0
    7.5137   -2.8894   -0.8329 H   0  0  0  0  0  0  0  0  0  0  0  0
    8.7851   -0.7519   -0.7016 H   0  0  0  0  0  0  0  0  0  0  0  0
    8.7768    1.7498   -0.5779 H   0  0  0  0  0  0  0  0  0  0  0  0
    7.4463    3.8800   -0.4717 H   0  0  0  0  0  0  0  0  0  0  0  0
    4.9434    3.7390   -0.5265 H   0  0  0  0  0  0  0  0  0  0  0  0
    1.2584   -1.5589   -1.4034 H   0  0  0  0  0  0  0  0  0  0  0  0
   -1.2491   -1.6039   -1.2854 H   0  0  0  0  0  0  0  0  0  0  0  0
  1  2  2  0
  1 18  1  0
  1 19  1  0
  2  3  1  0
  2 20  1  0
  3  4  2  0
  3 21  1  0
  4  5  1  0
  4 17  1  0
  5  6  2  0
  6  7  1  0
  7  8  2  0
  7 16  1  0
  8  9  1  0
  8 22  1  0
  9 10  2  0
  9 23  1  0
 10 11  1  0
 10 24  1  0
 11 12  1  0
 11 16  2  0
 12 13  2  0
 12 25  1  0
 13 14  1  0
 13 26  1  0
 14 15  2  0
 14 27  1  0
 15 16  1  0
 17 18  2  0
 17 28  1  0
 18 29  1  0
M  END

