
     RDKit          3D

 46 49  0  0  0  0  0  0  0  0999 V2000
   -2.0499    3.1623    0.9016 O   0  0  0  0  0  0  0  0  0  0  0  0
   -1.0758    2.5328    1.2366 C   0  0  0  0  0  0  0  0  0  0  0  0
   -0.4716    2.7826    2.6342 C   0  0  0  0  0  0  0  0  0  0  0  0
    1.2139    2.1818    3.0130 S   0  0  0  0  0  0  0  0  0  0  0  0
    2.1798    3.3781    2.1260 C   0  0  0  0  0  0  0  0  0  0  0  0
    1.6139    4.2536    1.3063 N   0  0  0  0  0  0  0  0  0  0  0  0
    2.6279    5.0089    0.8639 N   0  0  0  0  0  0  0  0  0  0  0  0
    2.4512    5.7089    0.1527 H   0  0  0  0  0  0  0  0  0  0  0  0
    3.8445    4.6406    1.3574 C   0  0  0  0  0  0  0  0  0  0  0  0
    5.0758    5.3356    0.9452 C   0  0  0  0  0  0  0  0  0  0  0  0
    5.0752    6.7307    0.7517 C   0  0  0  0  0  0  0  0  0  0  0  0
    6.2283    7.3918    0.3228 C   0  0  0  0  0  0  0  0  0  0  0  0
    7.4037    6.6729    0.0884 C   0  0  0  0  0  0  0  0  0  0  0  0
    7.4172    5.2875    0.2830 C   0  0  0  0  0  0  0  0  0  0  0  0
    6.2654    4.6223    0.7046 C   0  0  0  0  0  0  0  0  0  0  0  0
    3.5977    3.5576    2.2140 C   0  0  0  0  0  0  0  0  0  0  0  0
    4.5469    2.8223    3.0754 C   0  0  0  0  0  0  0  0  0  0  0  0
    5.4906    3.5070    3.8657 C   0  0  0  0  0  0  0  0  0  0  0  0
    6.3760    2.8096    4.6889 C   0  0  0  0  0  0  0  0  0  0  0  0
    6.3335    1.4126    4.7484 C   0  0  0  0  0  0  0  0  0  0  0  0
    5.3979    0.7198    3.9756 C   0  0  0  0  0  0  0  0  0  0  0  0
    4.5155    1.4166    3.1460 C   0  0  0  0  0  0  0  0  0  0  0  0
   -0.4472    1.5394    0.5129 N   0  0  0  0  0  0  0  0  0  0  0  0
   -0.7400    1.0325   -0.7580 C   0  0  0  0  0  0  0  0  0  0  0  0
    0.2183    0.1935   -1.3712 C   0  0  0  0  0  0  0  0  0  0  0  0
   -0.0672   -0.3296   -2.6267 C   0  0  0  0  0  0  0  0  0  0  0  0
   -1.2827   -0.0047   -3.2405 C   0  0  0  0  0  0  0  0  0  0  0  0
   -2.1547    0.8344   -2.5448 C   0  0  0  0  0  0  0  0  0  0  0  0
   -1.8991    1.3373   -1.3358 N   0  0  0  0  0  0  0  0  0  0  0  0
   -1.1189    2.2810    3.3716 H   0  0  0  0  0  0  0  0  0  0  0  0
   -0.5266    3.8638    2.8141 H   0  0  0  0  0  0  0  0  0  0  0  0
    4.1705    7.3071    0.9622 H   0  0  0  0  0  0  0  0  0  0  0  0
    6.2099    8.4754    0.1814 H   0  0  0  0  0  0  0  0  0  0  0  0
    8.3073    7.1902   -0.2435 H   0  0  0  0  0  0  0  0  0  0  0  0
    8.3314    4.7180    0.0976 H   0  0  0  0  0  0  0  0  0  0  0  0
    6.2789    3.5394    0.8392 H   0  0  0  0  0  0  0  0  0  0  0  0
    5.5188    4.5985    3.8406 H   0  0  0  0  0  0  0  0  0  0  0  0
    7.0982    3.3618    5.2960 H   0  0  0  0  0  0  0  0  0  0  0  0
    7.0241    0.8678    5.3971 H   0  0  0  0  0  0  0  0  0  0  0  0
    5.3555   -0.3718    4.0140 H   0  0  0  0  0  0  0  0  0  0  0  0
    3.7976    0.8631    2.5365 H   0  0  0  0  0  0  0  0  0  0  0  0
    0.4020    1.1842    0.9465 H   0  0  0  0  0  0  0  0  0  0  0  0
    1.1621   -0.0322   -0.8682 H   0  0  0  0  0  0  0  0  0  0  0  0
    0.6543   -0.9824   -3.1251 H   0  0  0  0  0  0  0  0  0  0  0  0
   -1.5467   -0.3908   -4.2271 H   0  0  0  0  0  0  0  0  0  0  0  0
   -3.1195    1.1140   -2.9856 H   0  0  0  0  0  0  0  0  0  0  0  0
  1  2  2  0
  2  3  1  0
  2 23  1  0
  3  4  1  0
  3 30  1  0
  3 31  1  0
  4  5  1  0
  5  6  2  0
  5 16  1  0
  6  7  1  0
  7  8  1  0
  7  9  1  0
  9 10  1  0
  9 16  2  0
 10 11  2  0
 10 15  1  0
 11 12  1  0
 11 32  1  0
 12 13  2  0
 12 33  1  0
 13 14  1  0
 13 34  1  0
 14 15  2  0
 14 35  1  0
 15 36  1  0
 16 17  1  0
 17 18  2  0
 17 22  1  0
 18 19  1  0
 18 37  1  0
 19 20  2  0
 19 38  1  0
 20 21  1  0
 20 39  1  0
 21 22  2  0
 21 40  1  0
 22 41  1  0
 23 24  1  0
 23 42  1  0
 24 25  2  0
 24 29  1  0
 25 26  1  0
 25 43  1  0
 26 27  2  0
 26 44  1  0
 27 28  1  0
 27 45  1  0
 28 29  2  0
 28 46  1  0
M  END

