
     RDKit          3D

 49 51  0  0  0  0  0  0  0  0999 V2000
    2.5546   -0.3218   -1.2105 C   0  0  0  0  0  0  0  0  0  0  0  0
    3.8650   -1.0572   -1.4384 C   0  0  0  0  0  0  0  0  0  0  0  0
    4.1818   -1.9375   -0.3466 O   0  0  0  0  0  0  0  0  0  0  0  0
    4.8128   -1.4036    0.7279 C   0  0  0  0  0  0  0  0  0  0  0  0
    5.1328   -0.2320    0.7599 O   0  0  0  0  0  0  0  0  0  0  0  0
    5.0209   -2.4376    1.7721 C   0  0  0  0  0  0  0  0  0  0  0  0
    5.7073   -2.2078    2.9338 C   0  0  0  0  0  0  0  0  0  0  0  0
    6.3219   -0.8890    3.3146 C   0  0  0  0  0  0  0  0  0  0  0  0
    5.8931   -3.2515    3.8640 N   0  0  0  0  0  0  0  0  0  0  0  0
    6.4415   -2.9677    5.1685 C   0  0  0  0  0  0  0  0  0  0  0  0
    5.5913   -2.5873    6.2100 C   0  0  0  0  0  0  0  0  0  0  0  0
    6.1180   -2.2958    7.4695 C   0  0  0  0  0  0  0  0  0  0  0  0
    7.4899   -2.3909    7.6825 C   0  0  0  0  0  0  0  0  0  0  0  0
    7.9901   -2.1112    8.8854 F   0  0  0  0  0  0  0  0  0  0  0  0
    8.3486   -2.7770    6.6437 C   0  0  0  0  0  0  0  0  0  0  0  0
   10.0574   -2.8916    6.9406 Cl  0  0  0  0  0  0  0  0  0  0  0  0
    7.8190   -3.0689    5.3869 C   0  0  0  0  0  0  0  0  0  0  0  0
    5.6249   -4.5915    3.5544 C   0  0  0  0  0  0  0  0  0  0  0  0
    5.9935   -5.8569    4.5771 S   0  0  0  0  0  0  0  0  0  0  0  0
    5.0786   -4.7951    2.3372 N   0  0  0  0  0  0  0  0  0  0  0  0
    4.3999   -3.7958    1.5101 C   0  0  1  0  0  0  0  0  0  0  0  0
    2.8805   -3.8483    1.7104 C   0  0  0  0  0  0  0  0  0  0  0  0
    2.2597   -3.2038    2.7849 C   0  0  0  0  0  0  0  0  0  0  0  0
    0.8769   -3.3293    2.9674 C   0  0  0  0  0  0  0  0  0  0  0  0
    0.1087   -4.0878    2.0898 C   0  0  0  0  0  0  0  0  0  0  0  0
    0.7236   -4.7361    1.0042 C   0  0  0  0  0  0  0  0  0  0  0  0
   -0.0969   -5.4489    0.1921 O   0  0  0  0  0  0  0  0  0  0  0  0
    0.4461   -6.1380   -0.9108 C   0  0  0  0  0  0  0  0  0  0  0  0
    2.1088   -4.6125    0.8196 C   0  0  0  0  0  0  0  0  0  0  0  0
    2.3044    0.2794   -2.0995 H   0  0  0  0  0  0  0  0  0  0  0  0
    2.6337    0.3579   -0.3496 H   0  0  0  0  0  0  0  0  0  0  0  0
    1.7316   -1.0301   -1.0286 H   0  0  0  0  0  0  0  0  0  0  0  0
    4.6946   -0.3489   -1.5783 H   0  0  0  0  0  0  0  0  0  0  0  0
    3.8040   -1.7168   -2.3166 H   0  0  0  0  0  0  0  0  0  0  0  0
    6.1702   -0.1561    2.5195 H   0  0  0  0  0  0  0  0  0  0  0  0
    7.3976   -1.0104    3.5126 H   0  0  0  0  0  0  0  0  0  0  0  0
    5.8728   -0.5091    4.2451 H   0  0  0  0  0  0  0  0  0  0  0  0
    4.5154   -2.5304    6.0367 H   0  0  0  0  0  0  0  0  0  0  0  0
    5.4782   -1.9985    8.3024 H   0  0  0  0  0  0  0  0  0  0  0  0
    8.4835   -3.3885    4.5841 H   0  0  0  0  0  0  0  0  0  0  0  0
    4.8664   -5.7706    2.1554 H   0  0  0  0  0  0  0  0  0  0  0  0
    4.5949   -4.0690    0.4640 H   0  0  0  0  0  0  0  0  0  0  0  0
    2.8491   -2.5956    3.4738 H   0  0  0  0  0  0  0  0  0  0  0  0
    0.3914   -2.8244    3.8067 H   0  0  0  0  0  0  0  0  0  0  0  0
   -0.9705   -4.1942    2.2154 H   0  0  0  0  0  0  0  0  0  0  0  0
   -0.3930   -6.6411   -1.4098 H   0  0  0  0  0  0  0  0  0  0  0  0
    1.1836   -6.8995   -0.5986 H   0  0  0  0  0  0  0  0  0  0  0  0
    0.9285   -5.4513   -1.6300 H   0  0  0  0  0  0  0  0  0  0  0  0
    2.6029   -5.0970   -0.0241 H   0  0  0  0  0  0  0  0  0  0  0  0
  1  2  1  0
  1 30  1  0
  1 31  1  0
  1 32  1  0
  2  3  1  0
  2 33  1  0
  2 34  1  0
  3  4  1  0
  4  5  2  0
  4  6  1  0
  6  7  2  0
  6 21  1  0
  7  8  1  0
  7  9  1  0
  8 35  1  0
  8 36  1  0
  8 37  1  0
  9 10  1  0
  9 18  1  0
 10 11  2  0
 10 17  1  0
 11 12  1  0
 11 38  1  0
 12 13  2  0
 12 39  1  0
 13 14  1  0
 13 15  1  0
 15 16  1  0
 15 17  2  0
 17 40  1  0
 18 19  2  0
 18 20  1  0
 20 21  1  0
 20 41  1  0
 21 22  1  0
 21 42  1  6
 22 23  2  0
 22 29  1  0
 23 24  1  0
 23 43  1  0
 24 25  2  0
 24 44  1  0
 25 26  1  0
 25 45  1  0
 26 27  1  0
 26 29  2  0
 27 28  1  0
 28 46  1  0
 28 47  1  0
 28 48  1  0
 29 49  1  0
M  END

