
     RDKit          3D

 27 27  0  0  0  0  0  0  0  0999 V2000
    2.4565   -1.7942    1.0474 C   0  0  0  0  0  0  0  0  0  0  0  0
    2.4571   -0.8402   -0.1357 C   0  0  0  0  0  0  0  0  0  0  0  0
    3.0953   -1.4220   -1.2884 O   0  0  0  0  0  0  0  0  0  0  0  0
    4.4318   -1.3010   -1.3864 C   0  0  0  0  0  0  0  0  0  0  0  0
    5.1273   -0.7401   -0.5710 O   0  0  0  0  0  0  0  0  0  0  0  0
    4.9264   -1.9460   -2.6339 C   0  0  0  0  0  0  0  0  0  0  0  0
    6.2275   -1.9241   -2.9443 C   0  0  0  0  0  0  0  0  0  0  0  0
    6.8176   -2.5798   -4.1600 C   0  0  0  0  0  0  0  0  0  0  0  0
    7.6443   -1.6679   -4.9460 N   0  0  0  0  0  0  0  0  0  0  0  0
    8.9925   -1.6408   -5.0317 C   0  0  0  0  0  0  0  0  0  0  0  0
    9.2848   -0.5722   -5.8668 C   0  0  0  0  0  0  0  0  0  0  0  0
   10.5959   -0.1467   -6.2717 N   0  0  0  0  0  0  0  0  0  0  0  0
   11.5503   -0.7801   -5.8395 O   0  0  0  0  0  0  0  0  0  0  0  0
   10.6637    0.8181   -7.0192 O   0  0  0  0  0  0  0  0  0  0  0  0
    8.0377   -0.0134   -6.2333 C   0  0  0  0  0  0  0  0  0  0  0  0
    7.0516   -0.6884   -5.6637 N   0  0  0  0  0  0  0  0  0  0  0  0
    1.8929   -1.3509    1.8839 H   0  0  0  0  0  0  0  0  0  0  0  0
    3.4824   -1.9893    1.3931 H   0  0  0  0  0  0  0  0  0  0  0  0
    1.9818   -2.7516    0.7820 H   0  0  0  0  0  0  0  0  0  0  0  0
    2.9689    0.1001    0.1172 H   0  0  0  0  0  0  0  0  0  0  0  0
    1.4336   -0.6154   -0.4686 H   0  0  0  0  0  0  0  0  0  0  0  0
    4.1811   -2.4241   -3.2755 H   0  0  0  0  0  0  0  0  0  0  0  0
    6.9173   -1.4129   -2.2626 H   0  0  0  0  0  0  0  0  0  0  0  0
    6.0305   -2.9780   -4.8166 H   0  0  0  0  0  0  0  0  0  0  0  0
    7.4680   -3.4177   -3.8595 H   0  0  0  0  0  0  0  0  0  0  0  0
    9.6470   -2.3456   -4.5257 H   0  0  0  0  0  0  0  0  0  0  0  0
    7.8490    0.8381   -6.8840 H   0  0  0  0  0  0  0  0  0  0  0  0
  1  2  1  0
  1 17  1  0
  1 18  1  0
  1 19  1  0
  2  3  1  0
  2 20  1  0
  2 21  1  0
  3  4  1  0
  4  5  2  0
  4  6  1  0
  6  7  2  0
  6 22  1  0
  7  8  1  0
  7 23  1  0
  8  9  1  0
  8 24  1  0
  8 25  1  0
  9 10  1  0
  9 16  1  0
 10 11  2  0
 10 26  1  0
 11 12  1  0
 11 15  1  0
 12 13  2  0
 12 14  1  0
 15 16  2  0
 15 27  1  0
M  CHG  2  12   1  14  -1
M  END

