
     RDKit          3D

 50 52  0  0  0  0  0  0  0  0999 V2000
    1.6656    1.0463    0.2351 C   0  0  0  0  0  0  0  0  0  0  0  0
    3.0038    0.3967   -0.1424 C   0  0  1  0  0  0  0  0  0  0  0  0
    2.9029   -1.1376   -0.2798 C   0  0  0  0  0  0  0  0  0  0  0  0
    2.1869   -1.5601   -1.5687 C   0  0  2  0  0  0  0  0  0  0  0  0
    2.1418   -3.0747   -1.7407 C   0  0  0  0  0  0  0  0  0  0  0  0
    2.7614   -3.8602   -1.0763 O   0  0  0  0  0  0  0  0  0  0  0  0
    1.3503   -3.5076   -2.7516 O   0  0  0  0  0  0  0  0  0  0  0  0
    2.8711   -0.8890   -2.7838 C   0  0  0  0  0  0  0  0  0  0  0  0
    2.8955    0.5550   -2.6295 N   0  0  0  0  0  0  0  0  0  0  0  0
    1.9011    1.2733   -3.2860 C   0  0  0  0  0  0  0  0  0  0  0  0
    1.0373    0.7154   -3.9592 O   0  0  0  0  0  0  0  0  0  0  0  0
    1.9465    2.6367   -3.1462 N   0  0  0  0  0  0  0  0  0  0  0  0
    0.9836    3.4740   -3.8510 C   0  0  1  0  0  0  0  0  0  0  0  0
   -0.3256    3.6191   -3.0688 C   0  0  0  0  0  0  0  0  0  0  0  0
   -0.4083    4.4550   -1.9452 C   0  0  0  0  0  0  0  0  0  0  0  0
   -1.5903    4.5603   -1.2115 C   0  0  0  0  0  0  0  0  0  0  0  0
   -2.7086    3.8186   -1.6072 C   0  0  0  0  0  0  0  0  0  0  0  0
   -4.1981    3.9494   -0.6960 Cl  0  0  0  0  0  0  0  0  0  0  0  0
   -2.6487    2.9759   -2.7189 C   0  0  0  0  0  0  0  0  0  0  0  0
   -1.4552    2.8795   -3.4406 C   0  0  0  0  0  0  0  0  0  0  0  0
    1.6250    4.8083   -4.1568 C   0  0  0  0  0  0  0  0  0  0  0  0
    1.1472    5.8436   -4.9983 C   0  0  0  0  0  0  0  0  0  0  0  0
    2.1137    6.8303   -4.9115 C   0  0  0  0  0  0  0  0  0  0  0  0
    3.0757    6.3728   -4.0656 N   0  0  0  0  0  0  0  0  0  0  0  0
    4.3041    7.0269   -3.6673 C   0  0  0  0  0  0  0  0  0  0  0  0
    2.7881    5.1468   -3.6015 N   0  0  0  0  0  0  0  0  0  0  0  0
    3.6042    1.0018   -1.4324 C   0  0  0  0  0  0  0  0  0  0  0  0
    1.2754    0.6179    1.1722 H   0  0  0  0  0  0  0  0  0  0  0  0
    0.8955    0.9047   -0.5392 H   0  0  0  0  0  0  0  0  0  0  0  0
    1.7773    2.1321    0.3840 H   0  0  0  0  0  0  0  0  0  0  0  0
    3.7214    0.6106    0.6697 H   0  0  0  0  0  0  0  0  0  0  0  0
    2.3940   -1.5689    0.5967 H   0  0  0  0  0  0  0  0  0  0  0  0
    3.9122   -1.5822   -0.2916 H   0  0  0  0  0  0  0  0  0  0  0  0
    1.1413   -1.2027   -1.5579 H   0  0  0  0  0  0  0  0  0  0  0  0
    0.8962   -2.7620   -3.1723 H   0  0  0  0  0  0  0  0  0  0  0  0
    2.3526   -1.1199   -3.7213 H   0  0  0  0  0  0  0  0  0  0  0  0
    3.9096   -1.2589   -2.8605 H   0  0  0  0  0  0  0  0  0  0  0  0
    2.8023    3.1060   -2.8688 H   0  0  0  0  0  0  0  0  0  0  0  0
    0.7344    2.9784   -4.8029 H   0  0  0  0  0  0  0  0  0  0  0  0
    0.4654    5.0366   -1.6396 H   0  0  0  0  0  0  0  0  0  0  0  0
   -1.6538    5.2138   -0.3397 H   0  0  0  0  0  0  0  0  0  0  0  0
   -3.5276    2.3989   -3.0114 H   0  0  0  0  0  0  0  0  0  0  0  0
   -1.3933    2.2013   -4.2946 H   0  0  0  0  0  0  0  0  0  0  0  0
    0.2284    5.8652   -5.5790 H   0  0  0  0  0  0  0  0  0  0  0  0
    2.1884    7.8080   -5.3836 H   0  0  0  0  0  0  0  0  0  0  0  0
    4.3354    8.0318   -4.1085 H   0  0  0  0  0  0  0  0  0  0  0  0
    5.1778    6.4537   -4.0145 H   0  0  0  0  0  0  0  0  0  0  0  0
    4.3513    7.1133   -2.5713 H   0  0  0  0  0  0  0  0  0  0  0  0
    3.5988    2.0976   -1.3700 H   0  0  0  0  0  0  0  0  0  0  0  0
    4.6612    0.6919   -1.5226 H   0  0  0  0  0  0  0  0  0  0  0  0
  1  2  1  0
  1 28  1  0
  1 29  1  0
  1 30  1  0
  2  3  1  0
  2 27  1  0
  2 31  1  1
  3  4  1  0
  3 32  1  0
  3 33  1  0
  4  5  1  0
  4  8  1  0
  4 34  1  1
  5  6  2  0
  5  7  1  0
  7 35  1  0
  8  9  1  0
  8 36  1  0
  8 37  1  0
  9 10  1  0
  9 27  1  0
 10 11  2  0
 10 12  1  0
 12 13  1  0
 12 38  1  0
 13 14  1  0
 13 21  1  0
 13 39  1  6
 14 15  2  0
 14 20  1  0
 15 16  1  0
 15 40  1  0
 16 17  2  0
 16 41  1  0
 17 18  1  0
 17 19  1  0
 19 20  2  0
 19 42  1  0
 20 43  1  0
 21 22  1  0
 21 26  2  0
 22 23  2  0
 22 44  1  0
 23 24  1  0
 23 45  1  0
 24 25  1  0
 24 26  1  0
 25 46  1  0
 25 47  1  0
 25 48  1  0
 27 49  1  0
 27 50  1  0
M  END

