
     RDKit          3D

 29 29  0  0  0  0  0  0  0  0999 V2000
    2.8769   -1.2703   -0.5445 C   0  0  0  0  0  0  0  0  0  0  0  0
    2.6020   -0.0886    0.2470 N   0  0  0  0  0  0  0  0  0  0  0  0
    1.5146   -0.2088    1.1935 C   0  0  0  0  0  0  0  0  0  0  0  0
    3.1463    1.1596   -0.0800 C   0  0  0  0  0  0  0  0  0  0  0  0
    2.5324    2.2918   -0.1101 N   0  0  0  0  0  0  0  0  0  0  0  0
    1.1555    2.4441   -0.2409 C   0  0  0  0  0  0  0  0  0  0  0  0
    0.3902    3.4576    0.4263 C   0  0  0  0  0  0  0  0  0  0  0  0
   -0.9152    3.3597   -0.0153 C   0  0  0  0  0  0  0  0  0  0  0  0
   -0.9761    2.3403   -0.9291 N   0  0  0  0  0  0  0  0  0  0  0  0
   -1.8031    2.0677   -1.4418 H   0  0  0  0  0  0  0  0  0  0  0  0
    0.2699    1.7689   -1.0805 C   0  0  0  0  0  0  0  0  0  0  0  0
    4.5091    1.1245   -0.3822 N   0  0  0  0  0  0  0  0  0  0  0  0
    5.4302    0.3878    0.4680 C   0  0  0  0  0  0  0  0  0  0  0  0
    5.0878    2.3012   -1.0028 C   0  0  0  0  0  0  0  0  0  0  0  0
    1.9708   -1.6041   -1.0903 H   0  0  0  0  0  0  0  0  0  0  0  0
    3.2129   -2.1181    0.0827 H   0  0  0  0  0  0  0  0  0  0  0  0
    3.6600   -1.0532   -1.2819 H   0  0  0  0  0  0  0  0  0  0  0  0
    1.6960   -1.0775    1.8534 H   0  0  0  0  0  0  0  0  0  0  0  0
    0.5308   -0.3461    0.7058 H   0  0  0  0  0  0  0  0  0  0  0  0
    1.4528    0.6924    1.8161 H   0  0  0  0  0  0  0  0  0  0  0  0
    0.7827    4.1697    1.1490 H   0  0  0  0  0  0  0  0  0  0  0  0
   -1.7988    3.9378    0.2471 H   0  0  0  0  0  0  0  0  0  0  0  0
    0.4449    0.9663   -1.7928 H   0  0  0  0  0  0  0  0  0  0  0  0
    4.9059   -0.4188    0.9936 H   0  0  0  0  0  0  0  0  0  0  0  0
    5.8915    1.0468    1.2318 H   0  0  0  0  0  0  0  0  0  0  0  0
    6.2463   -0.0547   -0.1287 H   0  0  0  0  0  0  0  0  0  0  0  0
    4.3922    2.7155   -1.7426 H   0  0  0  0  0  0  0  0  0  0  0  0
    6.0311    2.0212   -1.5006 H   0  0  0  0  0  0  0  0  0  0  0  0
    5.3033    3.1023   -0.2690 H   0  0  0  0  0  0  0  0  0  0  0  0
  1  2  1  0
  1 15  1  0
  1 16  1  0
  1 17  1  0
  2  3  1  0
  2  4  1  0
  3 18  1  0
  3 19  1  0
  3 20  1  0
  4  5  2  0
  4 12  1  0
  5  6  1  0
  6  7  1  0
  6 11  2  0
  7  8  2  0
  7 21  1  0
  8  9  1  0
  8 22  1  0
  9 10  1  0
  9 11  1  0
 11 23  1  0
 12 13  1  0
 12 14  1  0
 13 24  1  0
 13 25  1  0
 13 26  1  0
 14 27  1  0
 14 28  1  0
 14 29  1  0
M  END

