
     RDKit          3D

 59 61  0  0  0  0  0  0  0  0999 V2000
    7.2095    4.4968   -4.2755 C   0  0  0  0  0  0  0  0  0  0  0  0
    7.1983    3.0247   -3.9098 C   0  0  0  0  0  0  0  0  0  0  0  0
    6.7599    2.9084   -2.5665 O   0  0  0  0  0  0  0  0  0  0  0  0
    6.6686    1.6878   -1.9810 C   0  0  0  0  0  0  0  0  0  0  0  0
    6.2293    1.6729   -0.6468 C   0  0  0  0  0  0  0  0  0  0  0  0
    6.1074    0.4570    0.0171 C   0  0  0  0  0  0  0  0  0  0  0  0
    6.4175   -0.7539   -0.6097 C   0  0  0  0  0  0  0  0  0  0  0  0
    6.8559   -0.7397   -1.9427 C   0  0  0  0  0  0  0  0  0  0  0  0
    7.1697   -1.9507   -2.6131 N   0  0  0  0  0  0  0  0  0  0  0  0
    6.6820   -3.1912   -2.2851 C   0  0  0  0  0  0  0  0  0  0  0  0
    5.9384   -3.5399   -1.3801 O   0  0  0  0  0  0  0  0  0  0  0  0
    7.2160   -4.1494   -3.2914 C   0  0  0  0  0  0  0  0  0  0  0  0
    6.8359   -5.4087   -3.1774 O   0  0  0  0  0  0  0  0  0  0  0  0
    7.9906   -3.5047   -4.2007 C   0  0  0  0  0  0  0  0  0  0  0  0
    8.6221   -4.1386   -5.3836 C   0  0  0  0  0  0  0  0  0  0  0  0
    8.6842   -5.3519   -5.4682 O   0  0  0  0  0  0  0  0  0  0  0  0
    9.1100   -3.2437   -6.5304 C   0  0  1  0  0  0  0  0  0  0  0  0
   10.2084   -3.9376   -7.3387 C   0  0  0  0  0  0  0  0  0  0  0  0
    7.9019   -2.8746   -7.4160 C   0  0  0  0  0  0  0  0  0  0  0  0
    8.0650   -2.0334   -3.7927 C   0  0  2  0  0  0  0  0  0  0  0  0
    9.4789   -1.5512   -3.4703 C   0  0  0  0  0  0  0  0  0  0  0  0
   10.0583   -0.4869   -4.1690 C   0  0  0  0  0  0  0  0  0  0  0  0
   11.3563   -0.0556   -3.8750 C   0  0  0  0  0  0  0  0  0  0  0  0
   12.1147   -0.6679   -2.8688 C   0  0  0  0  0  0  0  0  0  0  0  0
   13.5251   -0.1892   -2.5504 C   0  0  1  0  0  0  0  0  0  0  0  0
   13.6352    0.3578   -1.1165 C   0  0  0  0  0  0  0  0  0  0  0  0
   14.5766   -1.2807   -2.8154 C   0  0  0  0  0  0  0  0  0  0  0  0
   11.5247   -1.7362   -2.1686 C   0  0  0  0  0  0  0  0  0  0  0  0
   10.2349   -2.1725   -2.4649 C   0  0  0  0  0  0  0  0  0  0  0  0
    6.9765    0.4841   -2.6298 C   0  0  0  0  0  0  0  0  0  0  0  0
    7.5446    4.6290   -5.3160 H   0  0  0  0  0  0  0  0  0  0  0  0
    7.8904    5.0556   -3.6155 H   0  0  0  0  0  0  0  0  0  0  0  0
    6.2023    4.9292   -4.1758 H   0  0  0  0  0  0  0  0  0  0  0  0
    8.2090    2.5869   -4.0167 H   0  0  0  0  0  0  0  0  0  0  0  0
    6.5204    2.4617   -4.5800 H   0  0  0  0  0  0  0  0  0  0  0  0
    5.9930    2.6222   -0.1632 H   0  0  0  0  0  0  0  0  0  0  0  0
    5.7644    0.4439    1.0547 H   0  0  0  0  0  0  0  0  0  0  0  0
    6.3049   -1.6974   -0.0822 H   0  0  0  0  0  0  0  0  0  0  0  0
    6.2416   -5.4293   -2.3976 H   0  0  0  0  0  0  0  0  0  0  0  0
    9.5161   -2.3150   -6.0986 H   0  0  0  0  0  0  0  0  0  0  0  0
    9.8455   -4.8964   -7.7372 H   0  0  0  0  0  0  0  0  0  0  0  0
   11.0887   -4.1533   -6.7138 H   0  0  0  0  0  0  0  0  0  0  0  0
   10.5306   -3.3040   -8.1801 H   0  0  0  0  0  0  0  0  0  0  0  0
    7.4653   -3.7802   -7.8666 H   0  0  0  0  0  0  0  0  0  0  0  0
    8.2124   -2.2035   -8.2328 H   0  0  0  0  0  0  0  0  0  0  0  0
    7.1046   -2.3683   -6.8478 H   0  0  0  0  0  0  0  0  0  0  0  0
    7.6549   -1.4010   -4.5979 H   0  0  0  0  0  0  0  0  0  0  0  0
    9.4937    0.0169   -4.9596 H   0  0  0  0  0  0  0  0  0  0  0  0
   11.7851    0.7776   -4.4393 H   0  0  0  0  0  0  0  0  0  0  0  0
   13.7386    0.6471   -3.2387 H   0  0  0  0  0  0  0  0  0  0  0  0
   13.4499   -0.4312   -0.3691 H   0  0  0  0  0  0  0  0  0  0  0  0
   12.9075    1.1646   -0.9375 H   0  0  0  0  0  0  0  0  0  0  0  0
   14.6443    0.7603   -0.9301 H   0  0  0  0  0  0  0  0  0  0  0  0
   14.4355   -2.1468   -2.1481 H   0  0  0  0  0  0  0  0  0  0  0  0
   15.5932   -0.8916   -2.6427 H   0  0  0  0  0  0  0  0  0  0  0  0
   14.5232   -1.6463   -3.8528 H   0  0  0  0  0  0  0  0  0  0  0  0
   12.0834   -2.2427   -1.3772 H   0  0  0  0  0  0  0  0  0  0  0  0
    9.8103   -3.0108   -1.9066 H   0  0  0  0  0  0  0  0  0  0  0  0
    7.3033    0.4949   -3.6652 H   0  0  0  0  0  0  0  0  0  0  0  0
  1  2  1  0
  1 31  1  0
  1 32  1  0
  1 33  1  0
  2  3  1  0
  2 34  1  0
  2 35  1  0
  3  4  1  0
  4  5  2  0
  4 30  1  0
  5  6  1  0
  5 36  1  0
  6  7  2  0
  6 37  1  0
  7  8  1  0
  7 38  1  0
  8  9  1  0
  8 30  2  0
  9 10  1  0
  9 20  1  0
 10 11  2  0
 10 12  1  0
 12 13  1  0
 12 14  2  0
 13 39  1  0
 14 15  1  0
 14 20  1  0
 15 16  2  0
 15 17  1  0
 17 18  1  0
 17 19  1  0
 17 40  1  1
 18 41  1  0
 18 42  1  0
 18 43  1  0
 19 44  1  0
 19 45  1  0
 19 46  1  0
 20 21  1  0
 20 47  1  6
 21 22  2  0
 21 29  1  0
 22 23  1  0
 22 48  1  0
 23 24  2  0
 23 49  1  0
 24 25  1  0
 24 28  1  0
 25 26  1  0
 25 27  1  0
 25 50  1  6
 26 51  1  0
 26 52  1  0
 26 53  1  0
 27 54  1  0
 27 55  1  0
 27 56  1  0
 28 29  2  0
 28 57  1  0
 29 58  1  0
 30 59  1  0
M  END

