
     RDKit          3D

 38 39  0  0  0  0  0  0  0  0999 V2000
    0.6270   -0.1332    0.4432 C   0  0  0  0  0  0  0  0  0  0  0  0
    2.0755    0.1458    0.0061 C   0  0  1  0  0  0  0  0  0  0  0  0
    3.0502    0.0187    1.1899 C   0  0  0  0  0  0  0  0  0  0  0  0
    2.4945   -0.7244   -1.1718 C   0  0  0  0  0  0  0  0  0  0  0  0
    2.8529   -0.1541   -2.3999 C   0  0  0  0  0  0  0  0  0  0  0  0
    3.2391   -0.9443   -3.4884 C   0  0  0  0  0  0  0  0  0  0  0  0
    3.2916   -2.3410   -3.3876 C   0  0  0  0  0  0  0  0  0  0  0  0
    3.6289   -3.2206   -4.6041 C   0  0  1  0  0  0  0  0  0  0  0  0
    4.2368   -2.5326   -5.7453 N   0  0  0  0  0  0  0  0  0  0  0  0
    5.4717   -1.8871   -5.5596 N   0  0  0  0  0  0  0  0  0  0  0  0
    4.4768   -4.4417   -4.2606 C   0  0  0  0  0  0  0  0  0  0  0  0
    5.5999   -4.3729   -3.4236 C   0  0  0  0  0  0  0  0  0  0  0  0
    6.4090   -5.4908   -3.2033 C   0  0  0  0  0  0  0  0  0  0  0  0
    6.1086   -6.7092   -3.8147 C   0  0  0  0  0  0  0  0  0  0  0  0
    4.9923   -6.8009   -4.6496 C   0  0  0  0  0  0  0  0  0  0  0  0
    4.5763   -8.3047   -5.4222 Cl  0  0  0  0  0  0  0  0  0  0  0  0
    4.1953   -5.6710   -4.8695 C   0  0  0  0  0  0  0  0  0  0  0  0
    3.1327   -5.7776   -5.6750 F   0  0  0  0  0  0  0  0  0  0  0  0
    2.9298   -2.9156   -2.1572 C   0  0  0  0  0  0  0  0  0  0  0  0
    2.5379   -2.1262   -1.0760 C   0  0  0  0  0  0  0  0  0  0  0  0
    0.3239    0.5533    1.2506 H   0  0  0  0  0  0  0  0  0  0  0  0
    0.5116   -1.1620    0.8226 H   0  0  0  0  0  0  0  0  0  0  0  0
   -0.0760   -0.0058   -0.3948 H   0  0  0  0  0  0  0  0  0  0  0  0
    2.1174    1.1924   -0.3429 H   0  0  0  0  0  0  0  0  0  0  0  0
    3.0517   -1.0042    1.6014 H   0  0  0  0  0  0  0  0  0  0  0  0
    2.7662    0.7038    2.0055 H   0  0  0  0  0  0  0  0  0  0  0  0
    4.0816    0.2582    0.8873 H   0  0  0  0  0  0  0  0  0  0  0  0
    2.8289    0.9339   -2.5137 H   0  0  0  0  0  0  0  0  0  0  0  0
    3.4995   -0.4544   -4.4298 H   0  0  0  0  0  0  0  0  0  0  0  0
    2.6694   -3.6014   -4.9912 H   0  0  0  0  0  0  0  0  0  0  0  0
    3.5802   -1.8984   -6.1928 H   0  0  0  0  0  0  0  0  0  0  0  0
    6.2237   -2.5690   -5.6520 H   0  0  0  0  0  0  0  0  0  0  0  0
    5.5565   -1.4520   -4.6353 H   0  0  0  0  0  0  0  0  0  0  0  0
    5.8308   -3.4299   -2.9245 H   0  0  0  0  0  0  0  0  0  0  0  0
    7.2790   -5.4161   -2.5470 H   0  0  0  0  0  0  0  0  0  0  0  0
    6.7243   -7.5952   -3.6517 H   0  0  0  0  0  0  0  0  0  0  0  0
    2.9511   -4.0022   -2.0413 H   0  0  0  0  0  0  0  0  0  0  0  0
    2.2605   -2.6173   -0.1390 H   0  0  0  0  0  0  0  0  0  0  0  0
  1  2  1  0
  1 21  1  0
  1 22  1  0
  1 23  1  0
  2  3  1  0
  2  4  1  0
  2 24  1  6
  3 25  1  0
  3 26  1  0
  3 27  1  0
  4  5  2  0
  4 20  1  0
  5  6  1  0
  5 28  1  0
  6  7  2  0
  6 29  1  0
  7  8  1  0
  7 19  1  0
  8  9  1  0
  8 11  1  0
  8 30  1  6
  9 10  1  0
  9 31  1  0
 10 32  1  0
 10 33  1  0
 11 12  2  0
 11 17  1  0
 12 13  1  0
 12 34  1  0
 13 14  2  0
 13 35  1  0
 14 15  1  0
 14 36  1  0
 15 16  1  0
 15 17  2  0
 17 18  1  0
 19 20  2  0
 19 37  1  0
 20 38  1  0
M  END

