
     RDKit          3D

 35 35  0  0  0  0  0  0  0  0999 V2000
    1.1443    0.7117    2.1083 C   0  0  0  0  0  0  0  0  0  0  0  0
    2.6588    0.6664    1.9012 C   0  0  0  0  0  0  0  0  0  0  0  0
    3.2359   -0.7504    1.9742 C   0  0  0  0  0  0  0  0  0  0  0  0
    4.7421   -0.7878    1.7666 C   0  0  0  0  0  0  0  0  0  0  0  0
    5.1762   -2.1343    1.8639 O   0  0  0  0  0  0  0  0  0  0  0  0
    6.5026   -2.4168    1.7118 C   0  0  0  0  0  0  0  0  0  0  0  0
    7.4879   -1.4620    1.4808 C   0  0  0  0  0  0  0  0  0  0  0  0
    8.8567   -1.7811    1.3959 C   0  0  0  0  0  0  0  0  0  0  0  0
    9.7754   -0.6034    1.2278 C   0  0  0  0  0  0  0  0  0  0  0  0
   11.1135   -0.8169    1.4697 N   0  0  0  0  0  0  0  0  0  0  0  0
    9.3597    0.4976    0.8984 O   0  0  0  0  0  0  0  0  0  0  0  0
    9.2491   -3.1365    1.4943 C   0  0  0  0  0  0  0  0  0  0  0  0
   10.5933   -3.5450    1.4134 N   0  0  0  0  0  0  0  0  0  0  0  0
    8.2503   -4.1012    1.7073 C   0  0  0  0  0  0  0  0  0  0  0  0
    6.8986   -3.7759    1.8261 C   0  0  0  0  0  0  0  0  0  0  0  0
    6.0505   -4.8030    2.0870 O   0  0  0  0  0  0  0  0  0  0  0  0
    4.7976   -4.9003    1.4233 C   0  0  0  0  0  0  0  0  0  0  0  0
    0.7604    1.7425    2.0505 H   0  0  0  0  0  0  0  0  0  0  0  0
    0.8624    0.3057    3.0941 H   0  0  0  0  0  0  0  0  0  0  0  0
    0.6173    0.1164    1.3440 H   0  0  0  0  0  0  0  0  0  0  0  0
    3.1528    1.3023    2.6581 H   0  0  0  0  0  0  0  0  0  0  0  0
    2.9100    1.1145    0.9227 H   0  0  0  0  0  0  0  0  0  0  0  0
    2.7575   -1.3922    1.2136 H   0  0  0  0  0  0  0  0  0  0  0  0
    3.0044   -1.2032    2.9543 H   0  0  0  0  0  0  0  0  0  0  0  0
    5.2542   -0.1690    2.5281 H   0  0  0  0  0  0  0  0  0  0  0  0
    5.0093   -0.3720    0.7761 H   0  0  0  0  0  0  0  0  0  0  0  0
    7.2407   -0.4059    1.3807 H   0  0  0  0  0  0  0  0  0  0  0  0
   11.4001   -1.6152    2.0289 H   0  0  0  0  0  0  0  0  0  0  0  0
   11.6787    0.0244    1.5148 H   0  0  0  0  0  0  0  0  0  0  0  0
   11.1185   -3.0942    0.6673 H   0  0  0  0  0  0  0  0  0  0  0  0
   10.7006   -4.5537    1.3645 H   0  0  0  0  0  0  0  0  0  0  0  0
    8.5112   -5.1600    1.7756 H   0  0  0  0  0  0  0  0  0  0  0  0
    4.4831   -5.9498    1.5192 H   0  0  0  0  0  0  0  0  0  0  0  0
    4.8903   -4.6526    0.3517 H   0  0  0  0  0  0  0  0  0  0  0  0
    4.0397   -4.2450    1.8744 H   0  0  0  0  0  0  0  0  0  0  0  0
  1  2  1  0
  1 18  1  0
  1 19  1  0
  1 20  1  0
  2  3  1  0
  2 21  1  0
  2 22  1  0
  3  4  1  0
  3 23  1  0
  3 24  1  0
  4  5  1  0
  4 25  1  0
  4 26  1  0
  5  6  1  0
  6  7  2  0
  6 15  1  0
  7  8  1  0
  7 27  1  0
  8  9  1  0
  8 12  2  0
  9 10  1  0
  9 11  2  0
 10 28  1  0
 10 29  1  0
 12 13  1  0
 12 14  1  0
 13 30  1  0
 13 31  1  0
 14 15  2  0
 14 32  1  0
 15 16  1  0
 16 17  1  0
 17 33  1  0
 17 34  1  0
 17 35  1  0
M  END

