
     RDKit          3D

 90 94  0  0  0  0  0  0  0  0999 V2000
    0.5484   -6.6080   -4.9291 C   0  0  0  0  0  0  0  0  0  0  0  0
    1.8715   -6.6152   -4.4481 O   0  0  0  0  0  0  0  0  0  0  0  0
    2.2910   -5.6248   -3.6169 C   0  0  0  0  0  0  0  0  0  0  0  0
    3.6247   -5.7003   -3.1971 C   0  0  0  0  0  0  0  0  0  0  0  0
    4.1433   -4.7240   -2.3385 C   0  0  0  0  0  0  0  0  0  0  0  0
    5.5711   -4.8660   -1.8599 C   0  0  0  0  0  0  0  0  0  0  0  0
    6.0500   -3.6305   -1.3744 O   0  0  0  0  0  0  0  0  0  0  0  0
    7.3054   -3.5420   -0.8604 C   0  0  0  0  0  0  0  0  0  0  0  0
    7.6810   -2.2838   -0.3721 C   0  0  0  0  0  0  0  0  0  0  0  0
    8.9591   -2.0961    0.1664 C   0  0  0  0  0  0  0  0  0  0  0  0
    9.3693   -0.7106    0.6338 C   0  0  0  0  0  0  0  0  0  0  0  0
   10.5038   -0.6853    1.4736 O   0  0  0  0  0  0  0  0  0  0  0  0
   10.4173   -1.0700    2.7824 C   0  0  0  0  0  0  0  0  0  0  0  0
    9.2239   -1.4703    3.3977 C   0  0  0  0  0  0  0  0  0  0  0  0
    9.2403   -1.8291    4.7471 C   0  0  0  0  0  0  0  0  0  0  0  0
   10.4289   -1.8004    5.4735 C   0  0  0  0  0  0  0  0  0  0  0  0
   11.6329   -1.4122    4.8633 C   0  0  0  0  0  0  0  0  0  0  0  0
   12.9186   -1.4142    5.6543 C   0  0  0  0  0  0  0  0  0  0  0  0
   11.6311   -1.0365    3.5046 C   0  0  0  0  0  0  0  0  0  0  0  0
   12.8877   -0.5981    2.8167 C   0  0  0  0  0  0  0  0  0  0  0  0
   13.1712    0.7684    2.6215 C   0  0  0  0  0  0  0  0  0  0  0  0
   12.1974    1.8257    3.0834 C   0  0  0  0  0  0  0  0  0  0  0  0
   14.3642    1.1437    1.9808 C   0  0  0  0  0  0  0  0  0  0  0  0
   15.2629    0.1792    1.5322 C   0  0  0  0  0  0  0  0  0  0  0  0
   14.9942   -1.1795    1.7133 C   0  0  0  0  0  0  0  0  0  0  0  0
   13.8089   -1.5670    2.3551 C   0  0  0  0  0  0  0  0  0  0  0  0
   13.4681   -2.8674    2.5759 O   0  0  0  0  0  0  0  0  0  0  0  0
   14.3482   -3.8925    2.1680 C   0  0  0  0  0  0  0  0  0  0  0  0
    9.8589   -3.1612    0.2282 C   0  0  0  0  0  0  0  0  0  0  0  0
    9.4732   -4.4224   -0.2456 C   0  0  0  0  0  0  0  0  0  0  0  0
   10.4070   -5.4023   -0.1293 O   0  0  0  0  0  0  0  0  0  0  0  0
   10.1000   -6.7354   -0.4684 C   0  0  0  0  0  0  0  0  0  0  0  0
   11.2425   -7.6402   -0.0610 C   0  0  0  0  0  0  0  0  0  0  0  0
   12.1687   -7.2237    0.8869 C   0  0  0  0  0  0  0  0  0  0  0  0
   13.2005   -8.0947    1.2859 C   0  0  0  0  0  0  0  0  0  0  0  0
   14.0654   -7.5984    2.2105 O   0  0  0  0  0  0  0  0  0  0  0  0
   15.1157   -8.4140    2.6793 C   0  0  0  0  0  0  0  0  0  0  0  0
   13.2929   -9.3759    0.7408 C   0  0  0  0  0  0  0  0  0  0  0  0
   12.3477   -9.7892   -0.2182 C   0  0  0  0  0  0  0  0  0  0  0  0
   12.5230  -11.0495   -0.6946 O   0  0  0  0  0  0  0  0  0  0  0  0
   11.6299  -11.5531   -1.6605 C   0  0  0  0  0  0  0  0  0  0  0  0
   11.3249   -8.9274   -0.6264 C   0  0  0  0  0  0  0  0  0  0  0  0
    8.1993   -4.6258   -0.8011 C   0  0  0  0  0  0  0  0  0  0  0  0
    3.3380   -3.6700   -1.9046 C   0  0  0  0  0  0  0  0  0  0  0  0
    2.0046   -3.5930   -2.3328 C   0  0  0  0  0  0  0  0  0  0  0  0
    1.2947   -2.5326   -1.8673 O   0  0  0  0  0  0  0  0  0  0  0  0
   -0.0517   -2.3734   -2.2456 C   0  0  0  0  0  0  0  0  0  0  0  0
    1.4681   -4.5686   -3.1891 C   0  0  0  0  0  0  0  0  0  0  0  0
    0.4446   -7.4909   -5.5745 H   0  0  0  0  0  0  0  0  0  0  0  0
    0.3298   -5.7039   -5.5263 H   0  0  0  0  0  0  0  0  0  0  0  0
   -0.1905   -6.6786   -4.1099 H   0  0  0  0  0  0  0  0  0  0  0  0
    4.2358   -6.5296   -3.5599 H   0  0  0  0  0  0  0  0  0  0  0  0
    6.2065   -5.2295   -2.6894 H   0  0  0  0  0  0  0  0  0  0  0  0
    5.6161   -5.6301   -1.0582 H   0  0  0  0  0  0  0  0  0  0  0  0
    6.9565   -1.4682   -0.4259 H   0  0  0  0  0  0  0  0  0  0  0  0
    8.5124   -0.1961    1.1058 H   0  0  0  0  0  0  0  0  0  0  0  0
    9.6607   -0.1075   -0.2421 H   0  0  0  0  0  0  0  0  0  0  0  0
    8.2928   -1.5224    2.8342 H   0  0  0  0  0  0  0  0  0  0  0  0
    8.3107   -2.1423    5.2299 H   0  0  0  0  0  0  0  0  0  0  0  0
   10.4316   -2.0886    6.5279 H   0  0  0  0  0  0  0  0  0  0  0  0
   12.7318   -1.6341    6.7158 H   0  0  0  0  0  0  0  0  0  0  0  0
   13.4410   -0.4466    5.5890 H   0  0  0  0  0  0  0  0  0  0  0  0
   13.6132   -2.1760    5.2646 H   0  0  0  0  0  0  0  0  0  0  0  0
   11.9315    1.7009    4.1450 H   0  0  0  0  0  0  0  0  0  0  0  0
   11.2565    1.7655    2.5127 H   0  0  0  0  0  0  0  0  0  0  0  0
   12.6137    2.8349    2.9488 H   0  0  0  0  0  0  0  0  0  0  0  0
   14.5825    2.2047    1.8342 H   0  0  0  0  0  0  0  0  0  0  0  0
   16.1873    0.4818    1.0327 H   0  0  0  0  0  0  0  0  0  0  0  0
   15.7038   -1.9235    1.3526 H   0  0  0  0  0  0  0  0  0  0  0  0
   13.8960   -4.8468    2.4670 H   0  0  0  0  0  0  0  0  0  0  0  0
   15.3366   -3.7995    2.6538 H   0  0  0  0  0  0  0  0  0  0  0  0
   14.4918   -3.8974    1.0726 H   0  0  0  0  0  0  0  0  0  0  0  0
   10.8532   -3.0380    0.6575 H   0  0  0  0  0  0  0  0  0  0  0  0
    9.9121   -6.8289   -1.5556 H   0  0  0  0  0  0  0  0  0  0  0  0
    9.1740   -7.0565    0.0493 H   0  0  0  0  0  0  0  0  0  0  0  0
   12.1084   -6.2275    1.3210 H   0  0  0  0  0  0  0  0  0  0  0  0
   15.6706   -7.8185    3.4166 H   0  0  0  0  0  0  0  0  0  0  0  0
   15.8028   -8.7080    1.8654 H   0  0  0  0  0  0  0  0  0  0  0  0
   14.7369   -9.3285    3.1700 H   0  0  0  0  0  0  0  0  0  0  0  0
   14.0735  -10.0825    1.0181 H   0  0  0  0  0  0  0  0  0  0  0  0
   11.9607  -12.5749   -1.8912 H   0  0  0  0  0  0  0  0  0  0  0  0
   11.6463  -10.9546   -2.5894 H   0  0  0  0  0  0  0  0  0  0  0  0
   10.5920  -11.5909   -1.2825 H   0  0  0  0  0  0  0  0  0  0  0  0
   10.5955   -9.2345   -1.3765 H   0  0  0  0  0  0  0  0  0  0  0  0
    7.9107   -5.6031   -1.1781 H   0  0  0  0  0  0  0  0  0  0  0  0
    3.7293   -2.8973   -1.2447 H   0  0  0  0  0  0  0  0  0  0  0  0
   -0.4100   -1.4592   -1.7531 H   0  0  0  0  0  0  0  0  0  0  0  0
   -0.6778   -3.2229   -1.9160 H   0  0  0  0  0  0  0  0  0  0  0  0
   -0.1633   -2.2547   -3.3390 H   0  0  0  0  0  0  0  0  0  0  0  0
    0.4347   -4.5059   -3.5198 H   0  0  0  0  0  0  0  0  0  0  0  0
  1  2  1  0
  1 49  1  0
  1 50  1  0
  1 51  1  0
  2  3  1  0
  3  4  2  0
  3 48  1  0
  4  5  1  0
  4 52  1  0
  5  6  1  0
  5 44  2  0
  6  7  1  0
  6 53  1  0
  6 54  1  0
  7  8  1  0
  8  9  2  0
  8 43  1  0
  9 10  1  0
  9 55  1  0
 10 11  1  0
 10 29  2  0
 11 12  1  0
 11 56  1  0
 11 57  1  0
 12 13  1  0
 13 14  2  0
 13 19  1  0
 14 15  1  0
 14 58  1  0
 15 16  2  0
 15 59  1  0
 16 17  1  0
 16 60  1  0
 17 18  1  0
 17 19  2  0
 18 61  1  0
 18 62  1  0
 18 63  1  0
 19 20  1  0
 20 21  2  0
 20 26  1  0
 21 22  1  0
 21 23  1  0
 22 64  1  0
 22 65  1  0
 22 66  1  0
 23 24  2  0
 23 67  1  0
 24 25  1  0
 24 68  1  0
 25 26  2  0
 25 69  1  0
 26 27  1  0
 27 28  1  0
 28 70  1  0
 28 71  1  0
 28 72  1  0
 29 30  1  0
 29 73  1  0
 30 31  1  0
 30 43  2  0
 31 32  1  0
 32 33  1  0
 32 74  1  0
 32 75  1  0
 33 34  2  0
 33 42  1  0
 34 35  1  0
 34 76  1  0
 35 36  1  0
 35 38  2  0
 36 37  1  0
 37 77  1  0
 37 78  1  0
 37 79  1  0
 38 39  1  0
 38 80  1  0
 39 40  1  0
 39 42  2  0
 40 41  1  0
 41 81  1  0
 41 82  1  0
 41 83  1  0
 42 84  1  0
 43 85  1  0
 44 45  1  0
 44 86  1  0
 45 46  1  0
 45 48  2  0
 46 47  1  0
 47 87  1  0
 47 88  1  0
 47 89  1  0
 48 90  1  0
M  END

