
     RDKit          3D

 46 49  0  0  0  0  0  0  0  0999 V2000
    5.2811   -0.1358    0.0737 N   0  0  0  0  0  0  0  0  0  0  0  0
    4.0254    0.5220   -0.2220 C   0  0  1  0  0  0  0  0  0  0  0  0
    3.6822    0.2247   -1.6564 C   0  0  0  0  0  0  0  0  0  0  0  0
    3.2613    1.1191   -2.5117 N   0  0  0  0  0  0  0  0  0  0  0  0
    3.0262    0.3787   -3.6727 O   0  0  0  0  0  0  0  0  0  0  0  0
    3.3342   -0.8908   -3.3922 C   0  0  0  0  0  0  0  0  0  0  0  0
    3.2405   -1.9136   -4.4910 C   0  0  1  0  0  0  0  0  0  0  0  0
    4.3644   -1.6679   -5.5414 C   0  0  0  0  0  0  0  0  0  0  0  0
    4.2960   -2.6012   -6.7278 C   0  0  0  0  0  0  0  0  0  0  0  0
    3.4019   -2.3536   -7.7818 C   0  0  0  0  0  0  0  0  0  0  0  0
    3.3209   -3.2226   -8.8718 C   0  0  0  0  0  0  0  0  0  0  0  0
    4.1354   -4.3582   -8.9262 C   0  0  0  0  0  0  0  0  0  0  0  0
    5.0297   -4.6164   -7.8842 C   0  0  0  0  0  0  0  0  0  0  0  0
    5.1071   -3.7440   -6.7944 C   0  0  0  0  0  0  0  0  0  0  0  0
    3.2635   -3.2429   -3.9320 N   0  0  0  0  0  0  0  0  0  0  0  0
    2.2141   -4.1115   -4.0991 C   0  0  0  0  0  0  0  0  0  0  0  0
    1.2316   -3.8671   -4.7812 O   0  0  0  0  0  0  0  0  0  0  0  0
    2.3589   -5.4022   -3.3921 C   0  0  0  0  0  0  0  0  0  0  0  0
    1.5274   -6.4902   -3.3446 C   0  0  0  0  0  0  0  0  0  0  0  0
    2.1717   -7.4484   -2.5015 C   0  0  0  0  0  0  0  0  0  0  0  0
    3.3453   -6.8709   -2.0992 C   0  0  0  0  0  0  0  0  0  0  0  0
    3.4703   -5.6323   -2.6319 O   0  0  0  0  0  0  0  0  0  0  0  0
    3.7444   -1.0544   -2.1711 N   0  0  0  0  0  0  0  0  0  0  0  0
    2.7593    0.3053    0.6991 C   0  0  0  0  0  0  0  0  0  0  0  0
    2.5030    1.8306    0.6563 C   0  0  0  0  0  0  0  0  0  0  0  0
    3.9449    2.0345    0.1286 C   0  0  0  0  0  0  0  0  0  0  0  0
    5.2384   -1.1176   -0.2028 H   0  0  0  0  0  0  0  0  0  0  0  0
    5.4682   -0.1072    1.0752 H   0  0  0  0  0  0  0  0  0  0  0  0
    2.2644   -1.8050   -4.9890 H   0  0  0  0  0  0  0  0  0  0  0  0
    5.3384   -1.7669   -5.0347 H   0  0  0  0  0  0  0  0  0  0  0  0
    4.2820   -0.6210   -5.8743 H   0  0  0  0  0  0  0  0  0  0  0  0
    2.7617   -1.4669   -7.7501 H   0  0  0  0  0  0  0  0  0  0  0  0
    2.6194   -3.0118   -9.6831 H   0  0  0  0  0  0  0  0  0  0  0  0
    4.0738   -5.0383   -9.7796 H   0  0  0  0  0  0  0  0  0  0  0  0
    5.6722   -5.5001   -7.9192 H   0  0  0  0  0  0  0  0  0  0  0  0
    5.8118   -3.9515   -5.9842 H   0  0  0  0  0  0  0  0  0  0  0  0
    3.9755   -3.4654   -3.2443 H   0  0  0  0  0  0  0  0  0  0  0  0
    0.5737   -6.5737   -3.8594 H   0  0  0  0  0  0  0  0  0  0  0  0
    1.8123   -8.4382   -2.2281 H   0  0  0  0  0  0  0  0  0  0  0  0
    4.1603   -7.2039   -1.4615 H   0  0  0  0  0  0  0  0  0  0  0  0
    3.0846   -0.0387    1.6942 H   0  0  0  0  0  0  0  0  0  0  0  0
    1.9713   -0.3713    0.3337 H   0  0  0  0  0  0  0  0  0  0  0  0
    2.2450    2.3180    1.6081 H   0  0  0  0  0  0  0  0  0  0  0  0
    1.7478    2.1056   -0.0944 H   0  0  0  0  0  0  0  0  0  0  0  0
    4.6578    2.2636    0.9356 H   0  0  0  0  0  0  0  0  0  0  0  0
    4.1010    2.7424   -0.6970 H   0  0  0  0  0  0  0  0  0  0  0  0
  2  1  1  1
  1 27  1  0
  1 28  1  0
  2  3  1  0
  2 24  1  0
  2 26  1  0
  3  4  2  0
  3 23  1  0
  4  5  1  0
  5  6  1  0
  6  7  1  0
  6 23  2  0
  7  8  1  0
  7 15  1  0
  7 29  1  6
  8  9  1  0
  8 30  1  0
  8 31  1  0
  9 10  2  0
  9 14  1  0
 10 11  1  0
 10 32  1  0
 11 12  2  0
 11 33  1  0
 12 13  1  0
 12 34  1  0
 13 14  2  0
 13 35  1  0
 14 36  1  0
 15 16  1  0
 15 37  1  0
 16 17  2  0
 16 18  1  0
 18 19  2  0
 18 22  1  0
 19 20  1  0
 19 38  1  0
 20 21  2  0
 20 39  1  0
 21 22  1  0
 21 40  1  0
 24 25  1  0
 24 41  1  0
 24 42  1  0
 25 26  1  0
 25 43  1  0
 25 44  1  0
 26 45  1  0
 26 46  1  0
M  END

