
     RDKit          3D

 66 68  0  0  0  0  0  0  0  0999 V2000
    1.3495    0.0575    0.7257 C   0  0  0  0  0  0  0  0  0  0  0  0
    1.9108    1.1366   -0.2179 C   0  0  1  0  0  0  0  0  0  0  0  0
    3.3688    0.8262   -0.6583 C   0  0  0  0  0  0  0  0  0  0  0  0
    3.4869   -0.2812   -1.6843 C   0  0  0  0  0  0  0  0  0  0  0  0
    3.6720   -1.6215   -1.3140 C   0  0  0  0  0  0  0  0  0  0  0  0
    3.7288   -2.6277   -2.2849 C   0  0  0  0  0  0  0  0  0  0  0  0
    3.6079   -2.3118   -3.6384 C   0  0  0  0  0  0  0  0  0  0  0  0
    3.4343   -0.9765   -4.0412 C   0  0  0  0  0  0  0  0  0  0  0  0
    3.3534   -0.6179   -5.5081 C   0  0  0  0  0  0  0  0  0  0  0  0
    2.0828   -1.0096   -6.2759 C   0  0  0  0  0  0  0  0  0  0  0  0
    2.1525   -1.4094   -7.4298 O   0  0  0  0  0  0  0  0  0  0  0  0
    0.8938   -0.8363   -5.6302 N   0  0  0  0  0  0  0  0  0  0  0  0
   -0.3725   -1.0535   -6.3126 C   0  0  0  0  0  0  0  0  0  0  0  0
   -0.9957    0.2325   -6.8237 C   0  0  0  0  0  0  0  0  0  0  0  0
   -0.2959    1.0429   -7.7351 C   0  0  0  0  0  0  0  0  0  0  0  0
   -0.8112    2.2770   -8.1272 C   0  0  0  0  0  0  0  0  0  0  0  0
   -2.0432    2.7278   -7.6201 C   0  0  0  0  0  0  0  0  0  0  0  0
   -2.5726    4.1010   -7.8954 C   0  0  0  0  0  0  0  0  0  0  0  0
   -2.2470    4.6567   -9.0909 N   0  0  0  0  0  0  0  0  0  0  0  0
   -3.2498    4.7194   -7.0740 O   0  0  0  0  0  0  0  0  0  0  0  0
   -2.7630    1.8995   -6.7483 C   0  0  0  0  0  0  0  0  0  0  0  0
   -2.2437    0.6656   -6.3597 C   0  0  0  0  0  0  0  0  0  0  0  0
    3.3772    0.0170   -3.0548 C   0  0  0  0  0  0  0  0  0  0  0  0
    1.1059    1.3830   -1.4087 N   0  0  0  0  0  0  0  0  0  0  0  0
   -0.2291    1.9182   -1.2369 C   0  0  0  0  0  0  0  0  0  0  0  0
   -0.9334    1.9422   -2.5985 C   0  0  1  0  0  0  0  0  0  0  0  0
   -0.9041    0.6210   -3.1805 O   0  0  0  0  0  0  0  0  0  0  0  0
   -2.3504    2.4907   -2.5812 C   0  0  0  0  0  0  0  0  0  0  0  0
   -2.7916    3.2727   -3.6596 C   0  0  0  0  0  0  0  0  0  0  0  0
   -4.1297    3.6998   -3.7286 C   0  0  0  0  0  0  0  0  0  0  0  0
   -4.6306    4.3989   -4.7592 O   0  0  0  0  0  0  0  0  0  0  0  0
   -5.0127    3.3738   -2.6839 C   0  0  0  0  0  0  0  0  0  0  0  0
   -4.5666    2.6109   -1.6036 C   0  0  0  0  0  0  0  0  0  0  0  0
   -5.3842    2.2697   -0.5716 O   0  0  0  0  0  0  0  0  0  0  0  0
   -3.2392    2.1568   -1.5502 C   0  0  0  0  0  0  0  0  0  0  0  0
    1.9788   -0.0524    1.6241 H   0  0  0  0  0  0  0  0  0  0  0  0
    1.3001   -0.9232    0.2242 H   0  0  0  0  0  0  0  0  0  0  0  0
    0.3344    0.3116    1.0682 H   0  0  0  0  0  0  0  0  0  0  0  0
    1.9521    2.0858    0.3475 H   0  0  0  0  0  0  0  0  0  0  0  0
    3.9616    0.5747    0.2361 H   0  0  0  0  0  0  0  0  0  0  0  0
    3.7912    1.7509   -1.0808 H   0  0  0  0  0  0  0  0  0  0  0  0
    3.7821   -1.8812   -0.2575 H   0  0  0  0  0  0  0  0  0  0  0  0
    3.8788   -3.6671   -1.9809 H   0  0  0  0  0  0  0  0  0  0  0  0
    3.6645   -3.1029   -4.3916 H   0  0  0  0  0  0  0  0  0  0  0  0
    4.1745   -1.0839   -6.0717 H   0  0  0  0  0  0  0  0  0  0  0  0
    3.4680    0.4729   -5.6301 H   0  0  0  0  0  0  0  0  0  0  0  0
    0.8611   -0.4128   -4.7064 H   0  0  0  0  0  0  0  0  0  0  0  0
   -1.0714   -1.5600   -5.6297 H   0  0  0  0  0  0  0  0  0  0  0  0
   -0.1595   -1.7300   -7.1536 H   0  0  0  0  0  0  0  0  0  0  0  0
    0.6699    0.7041   -8.1179 H   0  0  0  0  0  0  0  0  0  0  0  0
   -0.2234    2.9125   -8.7949 H   0  0  0  0  0  0  0  0  0  0  0  0
   -1.8396    4.1123   -9.8390 H   0  0  0  0  0  0  0  0  0  0  0  0
   -2.6064    5.5819   -9.2967 H   0  0  0  0  0  0  0  0  0  0  0  0
   -3.7187    2.2469   -6.3538 H   0  0  0  0  0  0  0  0  0  0  0  0
   -2.8005    0.0490   -5.6505 H   0  0  0  0  0  0  0  0  0  0  0  0
    3.2453    1.0607   -3.3528 H   0  0  0  0  0  0  0  0  0  0  0  0
    1.0335    0.5284   -1.9600 H   0  0  0  0  0  0  0  0  0  0  0  0
   -0.1804    2.9478   -0.8394 H   0  0  0  0  0  0  0  0  0  0  0  0
   -0.8496    1.3376   -0.5203 H   0  0  0  0  0  0  0  0  0  0  0  0
   -0.3179    2.5488   -3.2793 H   0  0  0  0  0  0  0  0  0  0  0  0
   -1.6193    0.1124   -2.7714 H   0  0  0  0  0  0  0  0  0  0  0  0
   -2.1031    3.5361   -4.4639 H   0  0  0  0  0  0  0  0  0  0  0  0
   -3.9937    4.5053   -5.5028 H   0  0  0  0  0  0  0  0  0  0  0  0
   -6.0483    3.7190   -2.7488 H   0  0  0  0  0  0  0  0  0  0  0  0
   -6.2601    2.6493   -0.7204 H   0  0  0  0  0  0  0  0  0  0  0  0
   -2.9387    1.5597   -0.6886 H   0  0  0  0  0  0  0  0  0  0  0  0
  1  2  1  0
  1 36  1  0
  1 37  1  0
  1 38  1  0
  2  3  1  0
  2 24  1  0
  2 39  1  1
  3  4  1  0
  3 40  1  0
  3 41  1  0
  4  5  2  0
  4 23  1  0
  5  6  1  0
  5 42  1  0
  6  7  2  0
  6 43  1  0
  7  8  1  0
  7 44  1  0
  8  9  1  0
  8 23  2  0
  9 10  1  0
  9 45  1  0
  9 46  1  0
 10 11  2  0
 10 12  1  0
 12 13  1  0
 12 47  1  0
 13 14  1  0
 13 48  1  0
 13 49  1  0
 14 15  2  0
 14 22  1  0
 15 16  1  0
 15 50  1  0
 16 17  2  0
 16 51  1  0
 17 18  1  0
 17 21  1  0
 18 19  1  0
 18 20  2  0
 19 52  1  0
 19 53  1  0
 21 22  2  0
 21 54  1  0
 22 55  1  0
 23 56  1  0
 24 25  1  0
 24 57  1  0
 25 26  1  0
 25 58  1  0
 25 59  1  0
 26 27  1  0
 26 28  1  0
 26 60  1  6
 27 61  1  0
 28 29  2  0
 28 35  1  0
 29 30  1  0
 29 62  1  0
 30 31  1  0
 30 32  2  0
 31 63  1  0
 32 33  1  0
 32 64  1  0
 33 34  1  0
 33 35  2  0
 34 65  1  0
 35 66  1  0
M  END

