
     RDKit          3D

 42 42  0  0  0  0  0  0  0  0999 V2000
    7.8288   -1.4104   -4.1353 C   0  0  0  0  0  0  0  0  0  0  0  0
    7.0931   -0.8859   -2.9369 C   0  0  0  0  0  0  0  0  0  0  0  0
    5.7596   -0.7194   -2.7661 C   0  0  0  0  0  0  0  0  0  0  0  0
    5.1767   -0.1671   -1.4724 C   0  0  0  0  0  0  0  0  0  0  0  0
    6.1608    0.1383   -0.3442 C   0  0  0  0  0  0  0  0  0  0  0  0
    4.8082   -1.0844   -3.8727 C   0  0  0  0  0  0  0  0  0  0  0  0
    5.1868   -1.6380   -4.8883 O   0  0  0  0  0  0  0  0  0  0  0  0
    3.3192   -0.7491   -3.6759 C   0  0  0  0  0  0  0  0  0  0  0  0
    2.4493   -0.9760   -4.8865 C   0  0  0  0  0  0  0  0  0  0  0  0
    2.1722   -2.2651   -5.3579 C   0  0  0  0  0  0  0  0  0  0  0  0
    1.3619   -2.4685   -6.4779 C   0  0  0  0  0  0  0  0  0  0  0  0
    0.7929   -1.3934   -7.1803 C   0  0  0  0  0  0  0  0  0  0  0  0
   -0.1051   -1.5790   -8.4192 C   0  0  1  0  0  0  0  0  0  0  0  0
   -0.2959   -3.0630   -8.7818 C   0  0  0  0  0  0  0  0  0  0  0  0
   -1.4982   -0.9676   -8.1423 C   0  0  0  0  0  0  0  0  0  0  0  0
    0.5372   -0.8650   -9.6314 C   0  0  0  0  0  0  0  0  0  0  0  0
    1.0774   -0.1022   -6.7013 C   0  0  0  0  0  0  0  0  0  0  0  0
    1.8864    0.1024   -5.5829 C   0  0  0  0  0  0  0  0  0  0  0  0
    8.9157   -1.3049   -3.9992 H   0  0  0  0  0  0  0  0  0  0  0  0
    7.5253   -0.8979   -5.0608 H   0  0  0  0  0  0  0  0  0  0  0  0
    7.5985   -2.4742   -4.3107 H   0  0  0  0  0  0  0  0  0  0  0  0
    7.7302   -0.6036   -2.0929 H   0  0  0  0  0  0  0  0  0  0  0  0
    4.4181   -0.8760   -1.0943 H   0  0  0  0  0  0  0  0  0  0  0  0
    4.6084    0.7528   -1.6999 H   0  0  0  0  0  0  0  0  0  0  0  0
    6.7172   -0.7597   -0.0308 H   0  0  0  0  0  0  0  0  0  0  0  0
    5.6212    0.5179    0.5374 H   0  0  0  0  0  0  0  0  0  0  0  0
    6.8967    0.9045   -0.6362 H   0  0  0  0  0  0  0  0  0  0  0  0
    3.2299    0.2946   -3.3348 H   0  0  0  0  0  0  0  0  0  0  0  0
    2.9624   -1.3588   -2.8249 H   0  0  0  0  0  0  0  0  0  0  0  0
    2.5998   -3.1314   -4.8467 H   0  0  0  0  0  0  0  0  0  0  0  0
    1.1794   -3.4941   -6.8003 H   0  0  0  0  0  0  0  0  0  0  0  0
   -0.7785   -3.6262   -7.9675 H   0  0  0  0  0  0  0  0  0  0  0  0
    0.6608   -3.5550   -9.0174 H   0  0  0  0  0  0  0  0  0  0  0  0
   -0.9406   -3.1495   -9.6709 H   0  0  0  0  0  0  0  0  0  0  0  0
   -1.9845   -1.4643   -7.2874 H   0  0  0  0  0  0  0  0  0  0  0  0
   -2.1530   -1.0843   -9.0221 H   0  0  0  0  0  0  0  0  0  0  0  0
   -1.4368    0.1074   -7.9132 H   0  0  0  0  0  0  0  0  0  0  0  0
    1.5317   -1.2834   -9.8539 H   0  0  0  0  0  0  0  0  0  0  0  0
    0.6611    0.2143   -9.4539 H   0  0  0  0  0  0  0  0  0  0  0  0
   -0.0927   -0.9855  -10.5287 H   0  0  0  0  0  0  0  0  0  0  0  0
    0.6607    0.7720   -7.2075 H   0  0  0  0  0  0  0  0  0  0  0  0
    2.0819    1.1249   -5.2451 H   0  0  0  0  0  0  0  0  0  0  0  0
  1  2  1  0
  1 19  1  0
  1 20  1  0
  1 21  1  0
  2  3  2  0
  2 22  1  0
  3  4  1  0
  3  6  1  0
  4  5  1  0
  4 23  1  0
  4 24  1  0
  5 25  1  0
  5 26  1  0
  5 27  1  0
  6  7  2  0
  6  8  1  0
  8  9  1  0
  8 28  1  0
  8 29  1  0
  9 10  2  0
  9 18  1  0
 10 11  1  0
 10 30  1  0
 11 12  2  0
 11 31  1  0
 12 13  1  0
 12 17  1  0
 13 14  1  6
 13 15  1  0
 13 16  1  0
 14 32  1  0
 14 33  1  0
 14 34  1  0
 15 35  1  0
 15 36  1  0
 15 37  1  0
 16 38  1  0
 16 39  1  0
 16 40  1  0
 17 18  2  0
 17 41  1  0
 18 42  1  0
M  END

