
     RDKit          3D

 41 42  0  0  0  0  0  0  0  0999 V2000
    0.9658    0.5170   -0.8744 C   0  0  0  0  0  0  0  0  0  0  0  0
    2.4021    0.5650   -0.6149 N   0  0  0  0  0  0  0  0  0  0  0  0
    3.0486    1.6838   -0.1132 C   0  0  0  0  0  0  0  0  0  0  0  0
    4.3866    1.6851    0.1761 C   0  0  0  0  0  0  0  0  0  0  0  0
    5.1053    2.8695    0.6256 C   0  0  0  0  0  0  0  0  0  0  0  0
    6.2980    2.8519    0.8993 O   0  0  0  0  0  0  0  0  0  0  0  0
    4.3108    4.1728    0.6920 C   0  0  0  0  0  0  0  0  0  0  0  0
    2.8262    3.9771    1.0465 C   0  0  1  0  0  0  0  0  0  0  0  0
    2.6874    3.4913    2.5036 C   0  0  0  0  0  0  0  0  0  0  0  0
    2.0665    5.3052    0.8925 C   0  0  0  0  0  0  0  0  0  0  0  0
    2.2162    2.9368    0.0760 C   0  0  0  0  0  0  0  0  0  0  0  0
    3.1257   -0.6118   -0.6833 N   0  0  0  0  0  0  0  0  0  0  0  0
    2.9609   -1.5972    0.3813 C   0  0  0  0  0  0  0  0  0  0  0  0
    2.0668   -2.7840   -0.0149 C   0  0  0  0  0  0  0  0  0  0  0  0
    2.5445   -3.3976   -1.3390 C   0  0  0  0  0  0  0  0  0  0  0  0
    2.6227   -2.3345   -2.4442 C   0  0  0  0  0  0  0  0  0  0  0  0
    3.4842   -1.1398   -1.9953 C   0  0  0  0  0  0  0  0  0  0  0  0
    0.5935    1.4767   -1.2558 H   0  0  0  0  0  0  0  0  0  0  0  0
    0.3711    0.2470    0.0200 H   0  0  0  0  0  0  0  0  0  0  0  0
    0.7729   -0.2361   -1.6490 H   0  0  0  0  0  0  0  0  0  0  0  0
    4.9765    0.7774    0.0567 H   0  0  0  0  0  0  0  0  0  0  0  0
    4.3921    4.6508   -0.3027 H   0  0  0  0  0  0  0  0  0  0  0  0
    4.8165    4.8421    1.4052 H   0  0  0  0  0  0  0  0  0  0  0  0
    3.1251    4.2258    3.1984 H   0  0  0  0  0  0  0  0  0  0  0  0
    3.1987    2.5309    2.6672 H   0  0  0  0  0  0  0  0  0  0  0  0
    1.6265    3.3637    2.7767 H   0  0  0  0  0  0  0  0  0  0  0  0
    2.4689    6.0675    1.5787 H   0  0  0  0  0  0  0  0  0  0  0  0
    0.9942    5.1821    1.1207 H   0  0  0  0  0  0  0  0  0  0  0  0
    2.1504    5.7006   -0.1332 H   0  0  0  0  0  0  0  0  0  0  0  0
    2.0664    3.4080   -0.9145 H   0  0  0  0  0  0  0  0  0  0  0  0
    1.2098    2.6749    0.4386 H   0  0  0  0  0  0  0  0  0  0  0  0
    2.5781   -1.0793    1.2734 H   0  0  0  0  0  0  0  0  0  0  0  0
    3.9621   -1.9879    0.6516 H   0  0  0  0  0  0  0  0  0  0  0  0
    1.0196   -2.4477   -0.1184 H   0  0  0  0  0  0  0  0  0  0  0  0
    2.0781   -3.5395    0.7891 H   0  0  0  0  0  0  0  0  0  0  0  0
    1.8840   -4.2256   -1.6447 H   0  0  0  0  0  0  0  0  0  0  0  0
    3.5479   -3.8392   -1.1902 H   0  0  0  0  0  0  0  0  0  0  0  0
    1.6033   -1.9943   -2.6998 H   0  0  0  0  0  0  0  0  0  0  0  0
    3.0477   -2.7653   -3.3668 H   0  0  0  0  0  0  0  0  0  0  0  0
    3.4393   -0.3132   -2.7195 H   0  0  0  0  0  0  0  0  0  0  0  0
    4.5417   -1.4699   -1.9581 H   0  0  0  0  0  0  0  0  0  0  0  0
  1  2  1  0
  1 18  1  0
  1 19  1  0
  1 20  1  0
  2  3  1  0
  2 12  1  0
  3  4  2  0
  3 11  1  0
  4  5  1  0
  4 21  1  0
  5  6  2  0
  5  7  1  0
  7  8  1  0
  7 22  1  0
  7 23  1  0
  8  9  1  1
  8 10  1  0
  8 11  1  0
  9 24  1  0
  9 25  1  0
  9 26  1  0
 10 27  1  0
 10 28  1  0
 10 29  1  0
 11 30  1  0
 11 31  1  0
 12 13  1  0
 12 17  1  0
 13 14  1  0
 13 32  1  0
 13 33  1  0
 14 15  1  0
 14 34  1  0
 14 35  1  0
 15 16  1  0
 15 36  1  0
 15 37  1  0
 16 17  1  0
 16 38  1  0
 16 39  1  0
 17 40  1  0
 17 41  1  0
M  END

