
     RDKit          3D

 38 40  0  0  0  0  0  0  0  0999 V2000
    0.6887    0.0964    1.2115 C   0  0  0  0  0  0  0  0  0  0  0  0
    1.8022   -0.1316    0.1755 C   0  0  1  0  0  0  0  0  0  0  0  0
    3.1623    0.2291    0.8065 C   0  0  1  0  0  0  0  0  0  0  0  0
    3.9064   -0.7268    1.6993 C   0  0  0  0  0  0  0  0  0  0  0  0
    4.4683   -0.3640    0.3467 C   0  0  0  0  0  0  0  0  0  0  0  0
    1.7337   -1.5194   -0.2690 N   0  0  0  0  0  0  0  0  0  0  0  0
    1.9528   -1.9900   -1.5269 C   0  0  0  0  0  0  0  0  0  0  0  0
    1.9330   -3.1726   -1.8129 O   0  0  0  0  0  0  0  0  0  0  0  0
    2.2609   -0.9283   -2.5702 C   0  0  0  0  0  0  0  0  0  0  0  0
    1.7271    0.3985   -2.2734 N   0  0  0  0  0  0  0  0  0  0  0  0
    1.4878    1.3600   -3.3670 C   0  0  1  0  0  0  0  0  0  0  0  0
    2.7742    1.9443   -3.9968 C   0  0  0  0  0  0  0  0  0  0  0  0
    3.3815    1.0546   -5.0925 C   0  0  0  0  0  0  0  0  0  0  0  0
    2.2965    0.5808   -6.0604 C   0  0  0  0  0  0  0  0  0  0  0  0
    1.2322   -0.0580   -5.3763 O   0  0  0  0  0  0  0  0  0  0  0  0
    0.5717    0.8015   -4.4666 C   0  0  0  0  0  0  0  0  0  0  0  0
    1.5777    0.8597   -0.9936 C   0  0  0  0  0  0  0  0  0  0  0  0
    1.2825    2.0171   -0.7312 O   0  0  0  0  0  0  0  0  0  0  0  0
    0.8553   -0.5494    2.0884 H   0  0  0  0  0  0  0  0  0  0  0  0
   -0.2969   -0.1368    0.7808 H   0  0  0  0  0  0  0  0  0  0  0  0
    0.6875    1.1441    1.5357 H   0  0  0  0  0  0  0  0  0  0  0  0
    3.1918    1.2836    1.0967 H   0  0  0  0  0  0  0  0  0  0  0  0
    3.5144   -1.7419    1.8150 H   0  0  0  0  0  0  0  0  0  0  0  0
    4.3849   -0.3282    2.5981 H   0  0  0  0  0  0  0  0  0  0  0  0
    4.4496   -1.1457   -0.4174 H   0  0  0  0  0  0  0  0  0  0  0  0
    5.3412    0.2927    0.2961 H   0  0  0  0  0  0  0  0  0  0  0  0
    1.5189   -2.2325    0.4230 H   0  0  0  0  0  0  0  0  0  0  0  0
    1.8537   -1.2864   -3.5229 H   0  0  0  0  0  0  0  0  0  0  0  0
    3.3610   -0.9022   -2.6902 H   0  0  0  0  0  0  0  0  0  0  0  0
    0.9574    2.1845   -2.8734 H   0  0  0  0  0  0  0  0  0  0  0  0
    3.5056    2.1691   -3.2047 H   0  0  0  0  0  0  0  0  0  0  0  0
    2.4998    2.9153   -4.4463 H   0  0  0  0  0  0  0  0  0  0  0  0
    3.8805    0.1749   -4.6550 H   0  0  0  0  0  0  0  0  0  0  0  0
    4.1564    1.6093   -5.6481 H   0  0  0  0  0  0  0  0  0  0  0  0
    2.6905   -0.1523   -6.7803 H   0  0  0  0  0  0  0  0  0  0  0  0
    1.9034    1.4436   -6.6397 H   0  0  0  0  0  0  0  0  0  0  0  0
   -0.2578    0.2271   -4.0277 H   0  0  0  0  0  0  0  0  0  0  0  0
    0.1346    1.6619   -5.0149 H   0  0  0  0  0  0  0  0  0  0  0  0
  2  1  1  1
  1 19  1  0
  1 20  1  0
  1 21  1  0
  2  3  1  0
  2  6  1  0
  2 17  1  0
  3  4  1  0
  3  5  1  0
  3 22  1  1
  4  5  1  0
  4 23  1  0
  4 24  1  0
  5 25  1  0
  5 26  1  0
  6  7  1  0
  6 27  1  0
  7  8  2  0
  7  9  1  0
  9 10  1  0
  9 28  1  0
  9 29  1  0
 10 11  1  0
 10 17  1  0
 11 12  1  0
 11 16  1  0
 11 30  1  1
 12 13  1  0
 12 31  1  0
 12 32  1  0
 13 14  1  0
 13 33  1  0
 13 34  1  0
 14 15  1  0
 14 35  1  0
 14 36  1  0
 15 16  1  0
 16 37  1  0
 16 38  1  0
 17 18  2  0
M  END

