
     RDKit          3D

 65 69  0  0  0  0  0  0  0  0999 V2000
    1.5425    0.4160   -0.6261 C   0  0  0  0  0  0  0  0  0  0  0  0
    2.6432   -0.0222    0.1343 O   0  0  0  0  0  0  0  0  0  0  0  0
    2.9722    0.6579    1.2625 C   0  0  0  0  0  0  0  0  0  0  0  0
    2.3107    1.7707    1.7626 C   0  0  0  0  0  0  0  0  0  0  0  0
    2.7441    2.4068    2.9580 C   0  0  0  0  0  0  0  0  0  0  0  0
    3.8375    1.9508    3.6810 C   0  0  0  0  0  0  0  0  0  0  0  0
    4.3111    2.5001    4.8411 O   0  0  0  0  0  0  0  0  0  0  0  0
    3.6874    3.6596    5.3417 C   0  0  0  0  0  0  0  0  0  0  0  0
    4.5178    0.8145    3.1733 C   0  0  0  0  0  0  0  0  0  0  0  0
    4.1008    0.1702    1.9755 C   0  0  0  0  0  0  0  0  0  0  0  0
    4.9932   -0.9170    1.7416 C   0  0  0  0  0  0  0  0  0  0  0  0
    5.9040   -0.9064    2.7794 C   0  0  0  0  0  0  0  0  0  0  0  0
    5.6123    0.1291    3.6516 N   0  0  0  0  0  0  0  0  0  0  0  0
    6.5279    0.4488    4.7275 C   0  0  0  0  0  0  0  0  0  0  0  0
    7.0955   -0.8564    5.3363 C   0  0  2  0  0  0  0  0  0  0  0  0
    5.9851   -1.6405    6.0639 C   0  0  0  0  0  0  0  0  0  0  0  0
    8.2459   -0.3564    6.2675 C   0  0  0  0  0  0  0  0  0  0  0  0
    9.1447    0.3327    5.8127 O   0  0  0  0  0  0  0  0  0  0  0  0
    8.1575   -0.6911    7.5831 N   0  0  0  0  0  0  0  0  0  0  0  0
    9.0872   -0.2113    8.5910 C   0  0  1  0  0  0  0  0  0  0  0  0
    8.4565    0.6873    9.6696 C   0  0  0  0  0  0  0  0  0  0  0  0
    9.5512    0.7451   10.7412 C   0  0  0  0  0  0  0  0  0  0  0  0
   10.1542   -0.6847   10.7667 C   0  0  0  0  0  0  0  0  0  0  0  0
    9.7757   -1.3312    9.4065 C   0  0  0  0  0  0  0  0  0  0  0  0
    7.6817   -1.6764    4.2485 N   0  0  0  0  0  0  0  0  0  0  0  0
    8.8370   -2.5511    4.4887 C   0  0  0  0  0  0  0  0  0  0  0  0
    8.5374   -3.8555    5.2099 C   0  0  0  0  0  0  0  0  0  0  0  0
    7.7338   -4.8410    4.6084 C   0  0  0  0  0  0  0  0  0  0  0  0
    7.4598   -6.0427    5.2623 C   0  0  0  0  0  0  0  0  0  0  0  0
    7.9997   -6.2751    6.5320 C   0  0  0  0  0  0  0  0  0  0  0  0
    7.6590   -7.7812    7.3572 Cl  0  0  0  0  0  0  0  0  0  0  0  0
    8.8130   -5.3200    7.1447 C   0  0  0  0  0  0  0  0  0  0  0  0
    9.0740   -4.1184    6.4779 C   0  0  0  0  0  0  0  0  0  0  0  0
    7.0395   -1.8133    3.0263 C   0  0  0  0  0  0  0  0  0  0  0  0
    7.3870   -2.6411    2.1915 O   0  0  0  0  0  0  0  0  0  0  0  0
    1.4594   -0.2655   -1.4836 H   0  0  0  0  0  0  0  0  0  0  0  0
    1.6857    1.4466   -0.9996 H   0  0  0  0  0  0  0  0  0  0  0  0
    0.6018    0.3793   -0.0463 H   0  0  0  0  0  0  0  0  0  0  0  0
    1.4425    2.1830    1.2489 H   0  0  0  0  0  0  0  0  0  0  0  0
    2.1858    3.2769    3.3038 H   0  0  0  0  0  0  0  0  0  0  0  0
    4.2328    3.9442    6.2518 H   0  0  0  0  0  0  0  0  0  0  0  0
    2.6283    3.4772    5.6006 H   0  0  0  0  0  0  0  0  0  0  0  0
    3.7350    4.4942    4.6189 H   0  0  0  0  0  0  0  0  0  0  0  0
    4.9738   -1.6307    0.9234 H   0  0  0  0  0  0  0  0  0  0  0  0
    6.0006    1.0295    5.4925 H   0  0  0  0  0  0  0  0  0  0  0  0
    7.3739    1.0476    4.3546 H   0  0  0  0  0  0  0  0  0  0  0  0
    5.5182   -1.0354    6.8574 H   0  0  0  0  0  0  0  0  0  0  0  0
    6.3695   -2.5767    6.4942 H   0  0  0  0  0  0  0  0  0  0  0  0
    5.1932   -1.9115    5.3516 H   0  0  0  0  0  0  0  0  0  0  0  0
    7.3976   -1.2869    7.8876 H   0  0  0  0  0  0  0  0  0  0  0  0
    9.8417    0.3686    8.0397 H   0  0  0  0  0  0  0  0  0  0  0  0
    7.5472    0.2007   10.0694 H   0  0  0  0  0  0  0  0  0  0  0  0
    8.1608    1.6739    9.2804 H   0  0  0  0  0  0  0  0  0  0  0  0
    9.1773    1.0695   11.7241 H   0  0  0  0  0  0  0  0  0  0  0  0
   10.3201    1.4739   10.4350 H   0  0  0  0  0  0  0  0  0  0  0  0
    9.7350   -1.2705   11.5996 H   0  0  0  0  0  0  0  0  0  0  0  0
   11.2431   -0.6583   10.9232 H   0  0  0  0  0  0  0  0  0  0  0  0
    9.0641   -2.1610    9.5557 H   0  0  0  0  0  0  0  0  0  0  0  0
   10.6414   -1.7497    8.8708 H   0  0  0  0  0  0  0  0  0  0  0  0
    9.6006   -1.9808    5.0332 H   0  0  0  0  0  0  0  0  0  0  0  0
    9.2402   -2.7804    3.4931 H   0  0  0  0  0  0  0  0  0  0  0  0
    7.3313   -4.6587    3.6093 H   0  0  0  0  0  0  0  0  0  0  0  0
    6.8371   -6.8050    4.7907 H   0  0  0  0  0  0  0  0  0  0  0  0
    9.2375   -5.5185    8.1304 H   0  0  0  0  0  0  0  0  0  0  0  0
    9.7131   -3.3734    6.9590 H   0  0  0  0  0  0  0  0  0  0  0  0
  1  2  1  0
  1 36  1  0
  1 37  1  0
  1 38  1  0
  2  3  1  0
  3  4  2  0
  3 10  1  0
  4  5  1  0
  4 39  1  0
  5  6  2  0
  5 40  1  0
  6  7  1  0
  6  9  1  0
  7  8  1  0
  8 41  1  0
  8 42  1  0
  8 43  1  0
  9 10  2  0
  9 13  1  0
 10 11  1  0
 11 12  2  0
 11 44  1  0
 12 13  1  0
 12 34  1  0
 13 14  1  0
 14 15  1  0
 14 45  1  0
 14 46  1  0
 15 16  1  0
 15 17  1  1
 15 25  1  0
 16 47  1  0
 16 48  1  0
 16 49  1  0
 17 18  2  0
 17 19  1  0
 19 20  1  0
 19 50  1  0
 20 21  1  0
 20 24  1  0
 20 51  1  6
 21 22  1  0
 21 52  1  0
 21 53  1  0
 22 23  1  0
 22 54  1  0
 22 55  1  0
 23 24  1  0
 23 56  1  0
 23 57  1  0
 24 58  1  0
 24 59  1  0
 25 26  1  0
 25 34  1  0
 26 27  1  0
 26 60  1  0
 26 61  1  0
 27 28  2  0
 27 33  1  0
 28 29  1  0
 28 62  1  0
 29 30  2  0
 29 63  1  0
 30 31  1  0
 30 32  1  0
 32 33  2  0
 32 64  1  0
 33 65  1  0
 34 35  2  0
M  END

