
     RDKit          3D

 38 40  0  0  0  0  0  0  0  0999 V2000
    1.3133   -1.4892   -0.4022 C   0  0  0  0  0  0  0  0  0  0  0  0
    2.4516   -2.2568    0.2814 C   0  0  0  0  0  0  0  0  0  0  0  0
    3.0112   -1.5410    1.4731 C   0  0  0  0  0  0  0  0  0  0  0  0
    3.5509   -0.2869    1.4041 N   0  0  0  0  0  0  0  0  0  0  0  0
    3.9105   -0.0364    2.6503 C   0  0  0  0  0  0  0  0  0  0  0  0
    3.5881   -1.0962    3.4379 N   0  0  0  0  0  0  0  0  0  0  0  0
    3.0168   -2.0669    2.6923 N   0  0  0  0  0  0  0  0  0  0  0  0
    3.8767   -1.2607    4.8541 C   0  0  0  0  0  0  0  0  0  0  0  0
    4.1304    0.1155    5.4899 C   0  0  2  0  0  0  0  0  0  0  0  0
    2.8933    0.8742    5.7237 N   0  0  0  0  0  0  0  0  0  0  0  0
    2.0273    0.6641    7.1405 S   0  0  1  0  0  0  0  0  0  0  0  0
    0.6251    0.9290    6.8131 O   0  0  0  0  0  0  0  0  0  0  0  0
    2.4561   -0.5726    7.7962 O   0  0  0  0  0  0  0  0  0  0  0  0
    2.6001    2.0361    8.1808 C   0  0  0  0  0  0  0  0  0  0  0  0
    1.6669    2.9259    8.7124 C   0  0  0  0  0  0  0  0  0  0  0  0
    2.1486    3.9376    9.5470 C   0  0  0  0  0  0  0  0  0  0  0  0
    3.5223    3.9981    9.7910 C   0  0  0  0  0  0  0  0  0  0  0  0
    4.2510    5.3427   10.9118 Br  0  0  0  0  0  0  0  0  0  0  0  0
    4.3720    3.0517    9.1961 C   0  0  0  0  0  0  0  0  0  0  0  0
    3.9058    2.0872    8.4069 N   0  0  0  0  0  0  0  0  0  0  0  0
    5.1015    0.9376    4.6247 C   0  0  0  0  0  0  0  0  0  0  0  0
    4.5372    1.2006    3.2190 C   0  0  0  0  0  0  0  0  0  0  0  0
    0.9637   -2.0210   -1.3012 H   0  0  0  0  0  0  0  0  0  0  0  0
    1.6510   -0.4860   -0.7039 H   0  0  0  0  0  0  0  0  0  0  0  0
    0.4534   -1.3660    0.2757 H   0  0  0  0  0  0  0  0  0  0  0  0
    3.2685   -2.4167   -0.4442 H   0  0  0  0  0  0  0  0  0  0  0  0
    2.1142   -3.2510    0.6110 H   0  0  0  0  0  0  0  0  0  0  0  0
    4.7652   -1.9037    4.9763 H   0  0  0  0  0  0  0  0  0  0  0  0
    3.0302   -1.7641    5.3399 H   0  0  0  0  0  0  0  0  0  0  0  0
    4.5778   -0.0498    6.4785 H   0  0  0  0  0  0  0  0  0  0  0  0
    2.2447    0.9804    4.9443 H   0  0  0  0  0  0  0  0  0  0  0  0
    0.6075    2.8237    8.4739 H   0  0  0  0  0  0  0  0  0  0  0  0
    1.4700    4.6647    9.9969 H   0  0  0  0  0  0  0  0  0  0  0  0
    5.4517    3.0862    9.3720 H   0  0  0  0  0  0  0  0  0  0  0  0
    6.0462    0.3733    4.5469 H   0  0  0  0  0  0  0  0  0  0  0  0
    5.3276    1.8856    5.1335 H   0  0  0  0  0  0  0  0  0  0  0  0
    5.3189    1.5593    2.5323 H   0  0  0  0  0  0  0  0  0  0  0  0
    3.7799    2.0045    3.2538 H   0  0  0  0  0  0  0  0  0  0  0  0
  1  2  1  0
  1 23  1  0
  1 24  1  0
  1 25  1  0
  2  3  1  0
  2 26  1  0
  2 27  1  0
  3  4  1  0
  3  7  2  0
  4  5  2  0
  5  6  1  0
  5 22  1  0
  6  7  1  0
  6  8  1  0
  8  9  1  0
  8 28  1  0
  8 29  1  0
  9 10  1  0
  9 21  1  0
  9 30  1  1
 11 10  1  6
 10 31  1  0
 11 12  2  0
 11 13  2  0
 11 14  1  0
 14 15  2  0
 14 20  1  0
 15 16  1  0
 15 32  1  0
 16 17  2  0
 16 33  1  0
 17 18  1  0
 17 19  1  0
 19 20  2  0
 19 34  1  0
 21 22  1  0
 21 35  1  0
 21 36  1  0
 22 37  1  0
 22 38  1  0
M  END

