
     RDKit          3D

 52 52  0  0  0  0  0  0  0  0999 V2000
    2.1979   -0.2272    0.8768 C   0  0  0  0  0  0  0  0  0  0  0  0
    2.3390    0.2625   -0.5551 C   0  0  0  0  0  0  0  0  0  0  0  0
    3.0256   -0.6949   -1.3808 O   0  0  0  0  0  0  0  0  0  0  0  0
    4.3740   -0.6524   -1.3975 C   0  0  0  0  0  0  0  0  0  0  0  0
    5.0266    0.1429   -0.7655 O   0  0  0  0  0  0  0  0  0  0  0  0
    4.9370   -1.7240   -2.3085 C   0  0  0  0  0  0  0  0  0  0  0  0
    6.4614   -1.7226   -2.3900 C   0  0  0  0  0  0  0  0  0  0  0  0
    7.0161   -2.8131   -3.3101 C   0  0  0  0  0  0  0  0  0  0  0  0
    8.5449   -2.8202   -3.3992 C   0  0  0  0  0  0  0  0  0  0  0  0
    9.1069   -3.9101   -4.3165 C   0  0  0  0  0  0  0  0  0  0  0  0
   10.6364   -3.9159   -4.4019 C   0  0  0  0  0  0  0  0  0  0  0  0
   11.1842   -5.0136   -5.3194 C   0  0  0  0  0  0  0  0  0  0  0  0
   12.7177   -5.0068   -5.4596 C   0  0  1  0  0  0  0  0  0  0  0  0
   13.4326   -5.4090   -4.1613 C   0  0  0  0  0  0  0  0  0  0  0  0
   12.8997   -6.0595   -3.2914 O   0  0  0  0  0  0  0  0  0  0  0  0
   14.8760   -4.9168   -4.0137 C   0  0  0  0  0  0  0  0  0  0  0  0
   14.8433   -3.4841   -3.4622 C   0  0  0  0  0  0  0  0  0  0  0  0
   15.0933   -3.3327   -1.9800 C   0  0  0  0  0  0  0  0  0  0  0  0
   14.5813   -2.5496   -4.1864 O   0  0  0  0  0  0  0  0  0  0  0  0
   13.2114   -5.9417   -6.5439 C   0  0  0  0  0  0  0  0  0  0  0  0
   13.1897   -7.3187   -6.5581 C   0  0  0  0  0  0  0  0  0  0  0  0
   13.7158   -7.8781   -7.7623 C   0  0  0  0  0  0  0  0  0  0  0  0
   14.1377   -6.9214   -8.6507 C   0  0  0  0  0  0  0  0  0  0  0  0
   13.8949   -5.3269   -8.0245 S   0  0  0  0  0  0  0  0  0  0  0  0
    1.5999    0.4896    1.4623 H   0  0  0  0  0  0  0  0  0  0  0  0
    3.1839   -0.3203    1.3558 H   0  0  0  0  0  0  0  0  0  0  0  0
    1.6927   -1.2052    0.9108 H   0  0  0  0  0  0  0  0  0  0  0  0
    2.8811    1.2193   -0.5900 H   0  0  0  0  0  0  0  0  0  0  0  0
    1.3556    0.3894   -1.0313 H   0  0  0  0  0  0  0  0  0  0  0  0
    4.4785   -1.5871   -3.3037 H   0  0  0  0  0  0  0  0  0  0  0  0
    4.5533   -2.6958   -1.9503 H   0  0  0  0  0  0  0  0  0  0  0  0
    6.8770   -1.8397   -1.3747 H   0  0  0  0  0  0  0  0  0  0  0  0
    6.8036   -0.7312   -2.7327 H   0  0  0  0  0  0  0  0  0  0  0  0
    6.5921   -2.6896   -4.3244 H   0  0  0  0  0  0  0  0  0  0  0  0
    6.6667   -3.8026   -2.9601 H   0  0  0  0  0  0  0  0  0  0  0  0
    8.9679   -2.9429   -2.3851 H   0  0  0  0  0  0  0  0  0  0  0  0
    8.8936   -1.8312   -3.7499 H   0  0  0  0  0  0  0  0  0  0  0  0
    8.6841   -3.7874   -5.3312 H   0  0  0  0  0  0  0  0  0  0  0  0
    8.7589   -4.8989   -3.9648 H   0  0  0  0  0  0  0  0  0  0  0  0
   11.0524   -4.0421   -3.3876 H   0  0  0  0  0  0  0  0  0  0  0  0
   10.9868   -2.9298   -4.7584 H   0  0  0  0  0  0  0  0  0  0  0  0
   10.7515   -4.9029   -6.3279 H   0  0  0  0  0  0  0  0  0  0  0  0
   10.8706   -6.0023   -4.9464 H   0  0  0  0  0  0  0  0  0  0  0  0
   13.0616   -3.9867   -5.7008 H   0  0  0  0  0  0  0  0  0  0  0  0
   15.3666   -4.8910   -4.9972 H   0  0  0  0  0  0  0  0  0  0  0  0
   15.4038   -5.5983   -3.3338 H   0  0  0  0  0  0  0  0  0  0  0  0
   14.4103   -3.9948   -1.4216 H   0  0  0  0  0  0  0  0  0  0  0  0
   14.9495   -2.2881   -1.6749 H   0  0  0  0  0  0  0  0  0  0  0  0
   16.1190   -3.6567   -1.7356 H   0  0  0  0  0  0  0  0  0  0  0  0
   12.8081   -7.9123   -5.7252 H   0  0  0  0  0  0  0  0  0  0  0  0
   13.7796   -8.9495   -7.9592 H   0  0  0  0  0  0  0  0  0  0  0  0
   14.5768   -7.0628   -9.6373 H   0  0  0  0  0  0  0  0  0  0  0  0
  1  2  1  0
  1 25  1  0
  1 26  1  0
  1 27  1  0
  2  3  1  0
  2 28  1  0
  2 29  1  0
  3  4  1  0
  4  5  2  0
  4  6  1  0
  6  7  1  0
  6 30  1  0
  6 31  1  0
  7  8  1  0
  7 32  1  0
  7 33  1  0
  8  9  1  0
  8 34  1  0
  8 35  1  0
  9 10  1  0
  9 36  1  0
  9 37  1  0
 10 11  1  0
 10 38  1  0
 10 39  1  0
 11 12  1  0
 11 40  1  0
 11 41  1  0
 12 13  1  0
 12 42  1  0
 12 43  1  0
 13 14  1  0
 13 20  1  0
 13 44  1  6
 14 15  2  0
 14 16  1  0
 16 17  1  0
 16 45  1  0
 16 46  1  0
 17 18  1  0
 17 19  2  0
 18 47  1  0
 18 48  1  0
 18 49  1  0
 20 21  2  0
 20 24  1  0
 21 22  1  0
 21 50  1  0
 22 23  2  0
 22 51  1  0
 23 24  1  0
 23 52  1  0
M  END

