
     RDKit          3D

 55 55  0  0  0  0  0  0  0  0999 V2000
    3.5207    1.3747   -2.2335 C   0  0  0  0  0  0  0  0  0  0  0  0
    2.6303    0.9980   -1.0494 C   0  0  0  0  0  0  0  0  0  0  0  0
    2.3619   -0.4381   -0.9530 N   0  0  0  0  0  0  0  0  0  0  0  0
    1.2186   -0.9946   -1.6632 C   0  0  0  0  0  0  0  0  0  0  0  0
   -0.0351   -1.1332   -0.7781 C   0  0  0  0  0  0  0  0  0  0  0  0
   -1.1900   -1.6778   -1.4781 N   0  0  0  0  0  0  0  0  0  0  0  0
   -1.8489   -0.9843   -2.5045 C   0  0  0  0  0  0  0  0  0  0  0  0
   -2.3319    0.2000   -2.4563 N   0  0  0  0  0  0  0  0  0  0  0  0
   -2.4224    0.9318   -1.2188 C   0  0  0  0  0  0  0  0  0  0  0  0
   -2.0314   -1.7577   -3.6515 N   0  0  0  0  0  0  0  0  0  0  0  0
   -2.7411   -1.2121   -4.7977 C   0  0  0  0  0  0  0  0  0  0  0  0
   -4.2658   -1.2601   -4.6070 C   0  0  0  0  0  0  0  0  0  0  0  0
   -4.9880   -0.7297   -5.7488 N   0  0  0  0  0  0  0  0  0  0  0  0
   -5.4156   -1.4564   -6.8370 C   0  0  0  0  0  0  0  0  0  0  0  0
   -5.9802   -0.5856   -7.7505 C   0  0  0  0  0  0  0  0  0  0  0  0
   -5.8843    0.7239   -7.1955 C   0  0  0  0  0  0  0  0  0  0  0  0
   -5.2660    0.6007   -5.9650 C   0  0  0  0  0  0  0  0  0  0  0  0
    3.2311   -1.2055   -0.2193 C   0  0  0  0  0  0  0  0  0  0  0  0
    4.2157   -0.7633    0.3426 O   0  0  0  0  0  0  0  0  0  0  0  0
    2.8415   -2.5031   -0.2034 O   0  0  0  0  0  0  0  0  0  0  0  0
    3.6290   -3.5345    0.4791 C   0  0  1  0  0  0  0  0  0  0  0  0
    3.6870   -3.2433    1.9824 C   0  0  0  0  0  0  0  0  0  0  0  0
    2.8297   -4.8109    0.2072 C   0  0  0  0  0  0  0  0  0  0  0  0
    5.0259   -3.6304   -0.1438 C   0  0  0  0  0  0  0  0  0  0  0  0
    3.6697    2.4659   -2.2714 H   0  0  0  0  0  0  0  0  0  0  0  0
    3.0760    1.0628   -3.1928 H   0  0  0  0  0  0  0  0  0  0  0  0
    4.5078    0.8980   -2.1361 H   0  0  0  0  0  0  0  0  0  0  0  0
    1.6605    1.5181   -1.1165 H   0  0  0  0  0  0  0  0  0  0  0  0
    3.1079    1.3125   -0.1113 H   0  0  0  0  0  0  0  0  0  0  0  0
    1.4839   -1.9790   -2.0760 H   0  0  0  0  0  0  0  0  0  0  0  0
    0.9906   -0.3330   -2.5149 H   0  0  0  0  0  0  0  0  0  0  0  0
   -0.2836   -0.1544   -0.3450 H   0  0  0  0  0  0  0  0  0  0  0  0
    0.1985   -1.8005    0.0651 H   0  0  0  0  0  0  0  0  0  0  0  0
   -1.1388   -2.6791   -1.6399 H   0  0  0  0  0  0  0  0  0  0  0  0
   -3.2977    1.6023   -1.2520 H   0  0  0  0  0  0  0  0  0  0  0  0
   -1.5452    1.5883   -1.0534 H   0  0  0  0  0  0  0  0  0  0  0  0
   -2.5260    0.2860   -0.3245 H   0  0  0  0  0  0  0  0  0  0  0  0
   -1.2585   -2.3740   -3.8757 H   0  0  0  0  0  0  0  0  0  0  0  0
   -2.4688   -1.8096   -5.6815 H   0  0  0  0  0  0  0  0  0  0  0  0
   -2.4421   -0.1668   -4.9839 H   0  0  0  0  0  0  0  0  0  0  0  0
   -4.5276   -0.6735   -3.7156 H   0  0  0  0  0  0  0  0  0  0  0  0
   -4.5869   -2.2988   -4.4336 H   0  0  0  0  0  0  0  0  0  0  0  0
   -5.2948   -2.5379   -6.8656 H   0  0  0  0  0  0  0  0  0  0  0  0
   -6.4241   -0.8621   -8.7054 H   0  0  0  0  0  0  0  0  0  0  0  0
   -6.2377    1.6521   -7.6415 H   0  0  0  0  0  0  0  0  0  0  0  0
   -5.0009    1.3487   -5.2201 H   0  0  0  0  0  0  0  0  0  0  0  0
    2.6700   -3.1474    2.3944 H   0  0  0  0  0  0  0  0  0  0  0  0
    4.2388   -2.3164    2.1817 H   0  0  0  0  0  0  0  0  0  0  0  0
    4.1877   -4.0748    2.5028 H   0  0  0  0  0  0  0  0  0  0  0  0
    1.8121   -4.7282    0.6190 H   0  0  0  0  0  0  0  0  0  0  0  0
    3.3229   -5.6762    0.6753 H   0  0  0  0  0  0  0  0  0  0  0  0
    2.7528   -4.9990   -0.8747 H   0  0  0  0  0  0  0  0  0  0  0  0
    5.6002   -2.7126    0.0332 H   0  0  0  0  0  0  0  0  0  0  0  0
    4.9507   -3.7995   -1.2297 H   0  0  0  0  0  0  0  0  0  0  0  0
    5.5706   -4.4804    0.2960 H   0  0  0  0  0  0  0  0  0  0  0  0
  1  2  1  0
  1 25  1  0
  1 26  1  0
  1 27  1  0
  2  3  1  0
  2 28  1  0
  2 29  1  0
  3  4  1  0
  3 18  1  0
  4  5  1  0
  4 30  1  0
  4 31  1  0
  5  6  1  0
  5 32  1  0
  5 33  1  0
  6  7  1  0
  6 34  1  0
  7  8  2  0
  7 10  1  0
  8  9  1  0
  9 35  1  0
  9 36  1  0
  9 37  1  0
 10 11  1  0
 10 38  1  0
 11 12  1  0
 11 39  1  0
 11 40  1  0
 12 13  1  0
 12 41  1  0
 12 42  1  0
 13 14  1  0
 13 17  1  0
 14 15  2  0
 14 43  1  0
 15 16  1  0
 15 44  1  0
 16 17  2  0
 16 45  1  0
 17 46  1  0
 18 19  2  0
 18 20  1  0
 21 20  1  6
 21 22  1  0
 21 23  1  0
 21 24  1  0
 22 47  1  0
 22 48  1  0
 22 49  1  0
 23 50  1  0
 23 51  1  0
 23 52  1  0
 24 53  1  0
 24 54  1  0
 24 55  1  0
M  END

