
     RDKit          3D

 55 58  0  0  0  0  0  0  0  0999 V2000
    0.9756   -0.5831    0.2302 C   0  0  0  0  0  0  0  0  0  0  0  0
    1.7779    0.5746    0.3186 O   0  0  0  0  0  0  0  0  0  0  0  0
    2.6898    0.6813    1.3127 C   0  0  0  0  0  0  0  0  0  0  0  0
    2.9125   -0.2974    2.2991 C   0  0  0  0  0  0  0  0  0  0  0  0
    3.8778   -0.0870    3.2811 C   0  0  0  0  0  0  0  0  0  0  0  0
    4.6470    1.0909    3.3158 C   0  0  0  0  0  0  0  0  0  0  0  0
    5.6645    1.2979    4.3490 C   0  0  0  0  0  0  0  0  0  0  0  0
    5.9257    0.4146    5.2542 N   0  0  0  0  0  0  0  0  0  0  0  0
    6.9091    0.8856    6.0837 N   0  0  0  0  0  0  0  0  0  0  0  0
    7.5666    0.0866    6.9914 C   0  0  0  0  0  0  0  0  0  0  0  0
    8.5083    0.5217    7.6325 O   0  0  0  0  0  0  0  0  0  0  0  0
    7.0795   -1.3656    7.1140 C   0  0  0  0  0  0  0  0  0  0  0  0
    7.6586   -2.0757    8.2315 N   0  0  0  0  0  0  0  0  0  0  0  0
    7.1594   -1.7179    9.5671 C   0  0  1  0  0  0  0  0  0  0  0  0
    7.1930   -0.6210    9.7302 H   0  0  0  0  0  0  0  0  0  0  0  0
    5.7029   -2.1760    9.7549 C   0  0  0  0  0  0  0  0  0  0  0  0
    8.0515   -2.3526   10.6258 C   0  0  0  0  0  0  0  0  0  0  0  0
    8.3839   -1.6484   11.7924 C   0  0  0  0  0  0  0  0  0  0  0  0
    9.1629   -2.2402   12.7911 C   0  0  0  0  0  0  0  0  0  0  0  0
    9.6273   -3.5494   12.6346 C   0  0  0  0  0  0  0  0  0  0  0  0
    9.3074   -4.2591   11.4728 C   0  0  0  0  0  0  0  0  0  0  0  0
    8.5253   -3.6665   10.4777 C   0  0  0  0  0  0  0  0  0  0  0  0
    7.2956    2.2814    5.7973 C   0  0  2  0  0  0  0  0  0  0  0  0
    8.3880    2.3472    5.6858 H   0  0  0  0  0  0  0  0  0  0  0  0
    6.8931    3.2031    6.9106 C   0  0  0  0  0  0  0  0  0  0  0  0
    5.8940    3.1854    7.8445 C   0  0  0  0  0  0  0  0  0  0  0  0
    6.0217    4.4063    8.5889 C   0  0  0  0  0  0  0  0  0  0  0  0
    7.0830    5.0703    8.0462 C   0  0  0  0  0  0  0  0  0  0  0  0
    7.6166    4.3479    7.0260 O   0  0  0  0  0  0  0  0  0  0  0  0
    6.5485    2.5300    4.4585 C   0  0  0  0  0  0  0  0  0  0  0  0
    4.4100    2.0616    2.3205 C   0  0  0  0  0  0  0  0  0  0  0  0
    3.4504    1.8632    1.3351 C   0  0  0  0  0  0  0  0  0  0  0  0
    0.3222   -0.4438   -0.6413 H   0  0  0  0  0  0  0  0  0  0  0  0
    0.3483   -0.7177    1.1296 H   0  0  0  0  0  0  0  0  0  0  0  0
    1.5832   -1.4934    0.0800 H   0  0  0  0  0  0  0  0  0  0  0  0
    2.3381   -1.2238    2.3088 H   0  0  0  0  0  0  0  0  0  0  0  0
    4.0480   -0.8475    4.0452 H   0  0  0  0  0  0  0  0  0  0  0  0
    7.3377   -1.8763    6.1685 H   0  0  0  0  0  0  0  0  0  0  0  0
    5.9817   -1.3856    7.1522 H   0  0  0  0  0  0  0  0  0  0  0  0
    8.6665   -1.9195    8.2218 H   0  0  0  0  0  0  0  0  0  0  0  0
    5.0207   -1.6810    9.0453 H   0  0  0  0  0  0  0  0  0  0  0  0
    5.3556   -1.9324   10.7704 H   0  0  0  0  0  0  0  0  0  0  0  0
    5.6199   -3.2646    9.6102 H   0  0  0  0  0  0  0  0  0  0  0  0
    8.0332   -0.6195   11.9161 H   0  0  0  0  0  0  0  0  0  0  0  0
    9.4143   -1.6732   13.6915 H   0  0  0  0  0  0  0  0  0  0  0  0
   10.2402   -4.0127   13.4123 H   0  0  0  0  0  0  0  0  0  0  0  0
    9.6704   -5.2820   11.3399 H   0  0  0  0  0  0  0  0  0  0  0  0
    8.2819   -4.2149    9.5650 H   0  0  0  0  0  0  0  0  0  0  0  0
    5.1642    2.3927    7.9922 H   0  0  0  0  0  0  0  0  0  0  0  0
    5.4065    4.7385    9.4226 H   0  0  0  0  0  0  0  0  0  0  0  0
    7.5676    6.0176    8.2668 H   0  0  0  0  0  0  0  0  0  0  0  0
    7.2377    2.5858    3.5991 H   0  0  0  0  0  0  0  0  0  0  0  0
    5.9712    3.4655    4.4779 H   0  0  0  0  0  0  0  0  0  0  0  0
    4.9850    2.9902    2.3122 H   0  0  0  0  0  0  0  0  0  0  0  0
    3.2658    2.6133    0.5638 H   0  0  0  0  0  0  0  0  0  0  0  0
  1  2  1  0
  1 33  1  0
  1 34  1  0
  1 35  1  0
  2  3  1  0
  3  4  2  0
  3 32  1  0
  4  5  1  0
  4 36  1  0
  5  6  2  0
  5 37  1  0
  6  7  1  0
  6 31  1  0
  7  8  2  0
  7 30  1  0
  8  9  1  0
  9 10  1  0
  9 23  1  0
 10 11  2  0
 10 12  1  0
 12 13  1  0
 12 38  1  0
 12 39  1  0
 13 14  1  0
 13 40  1  0
 14 15  1  6
 14 16  1  0
 14 17  1  0
 16 41  1  0
 16 42  1  0
 16 43  1  0
 17 18  2  0
 17 22  1  0
 18 19  1  0
 18 44  1  0
 19 20  2  0
 19 45  1  0
 20 21  1  0
 20 46  1  0
 21 22  2  0
 21 47  1  0
 22 48  1  0
 23 24  1  6
 23 25  1  0
 23 30  1  0
 25 26  2  0
 25 29  1  0
 26 27  1  0
 26 49  1  0
 27 28  2  0
 27 50  1  0
 28 29  1  0
 28 51  1  0
 30 52  1  0
 30 53  1  0
 31 32  2  0
 31 54  1  0
 32 55  1  0
M  END

