
     RDKit          3D

 56 61  0  0  0  0  0  0  0  0999 V2000
    0.7365    0.9108    0.4630 N   0  0  0  0  0  0  0  0  0  0  0  0
    1.8913    0.7835    0.4535 C   0  0  0  0  0  0  0  0  0  0  0  0
    3.3250    0.6892    0.4626 C   0  0  0  0  0  0  0  0  0  0  0  0
    3.9701    1.7440    1.1943 C   0  0  0  0  0  0  0  0  0  0  0  0
    4.4448    2.6095    1.8069 N   0  0  0  0  0  0  0  0  0  0  0  0
    4.0198   -0.3215   -0.1767 C   0  0  0  0  0  0  0  0  0  0  0  0
    3.3158   -1.4829   -0.7644 C   0  0  0  0  0  0  0  0  0  0  0  0
    3.7072   -1.9854   -2.0232 C   0  0  0  0  0  0  0  0  0  0  0  0
    3.0417   -3.0553   -2.6113 C   0  0  0  0  0  0  0  0  0  0  0  0
    1.9796   -3.6895   -1.9409 C   0  0  0  0  0  0  0  0  0  0  0  0
    1.3325   -4.7932   -2.5281 N   0  0  0  0  0  0  0  0  0  0  0  0
    1.9847   -5.8049   -3.2346 C   0  0  0  0  0  0  0  0  0  0  0  0
    1.0849   -6.7398   -3.6644 C   0  0  0  0  0  0  0  0  0  0  0  0
   -0.2174   -6.3069   -3.2291 C   0  0  0  0  0  0  0  0  0  0  0  0
   -1.5150   -6.8256   -3.3912 C   0  0  0  0  0  0  0  0  0  0  0  0
   -2.5943   -6.1218   -2.8670 C   0  0  0  0  0  0  0  0  0  0  0  0
   -2.4001   -4.8979   -2.1940 C   0  0  0  0  0  0  0  0  0  0  0  0
   -1.1265   -4.3609   -2.0156 C   0  0  0  0  0  0  0  0  0  0  0  0
   -0.0363   -5.0843   -2.5215 C   0  0  0  0  0  0  0  0  0  0  0  0
    1.6058   -3.2216   -0.6685 C   0  0  0  0  0  0  0  0  0  0  0  0
    2.2545   -2.1302   -0.1001 C   0  0  0  0  0  0  0  0  0  0  0  0
    5.4951   -0.2824   -0.2995 C   0  0  0  0  0  0  0  0  0  0  0  0
    6.2521   -1.4546   -0.0937 C   0  0  0  0  0  0  0  0  0  0  0  0
    7.6396   -1.4472   -0.1917 C   0  0  0  0  0  0  0  0  0  0  0  0
    8.3222   -0.2598   -0.5125 C   0  0  0  0  0  0  0  0  0  0  0  0
    9.7247   -0.2403   -0.6419 N   0  0  0  0  0  0  0  0  0  0  0  0
   10.4133    0.4496   -1.6409 C   0  0  0  0  0  0  0  0  0  0  0  0
   11.7599    0.2546   -1.5112 C   0  0  0  0  0  0  0  0  0  0  0  0
   11.9572   -0.5909   -0.3629 C   0  0  0  0  0  0  0  0  0  0  0  0
   13.1001   -1.1038    0.2773 C   0  0  0  0  0  0  0  0  0  0  0  0
   12.9434   -1.8769    1.4231 C   0  0  0  0  0  0  0  0  0  0  0  0
   11.6611   -2.1351    1.9498 C   0  0  0  0  0  0  0  0  0  0  0  0
   10.5111   -1.6428    1.3357 C   0  0  0  0  0  0  0  0  0  0  0  0
   10.6678   -0.8854    0.1654 C   0  0  0  0  0  0  0  0  0  0  0  0
    7.5765    0.9102   -0.7403 C   0  0  0  0  0  0  0  0  0  0  0  0
    6.1893    0.8971   -0.6349 C   0  0  0  0  0  0  0  0  0  0  0  0
    4.5230   -1.5038   -2.5656 H   0  0  0  0  0  0  0  0  0  0  0  0
    3.3291   -3.3913   -3.6090 H   0  0  0  0  0  0  0  0  0  0  0  0
    3.0678   -5.7857   -3.3307 H   0  0  0  0  0  0  0  0  0  0  0  0
    1.3221   -7.6454   -4.2189 H   0  0  0  0  0  0  0  0  0  0  0  0
   -1.6691   -7.7643   -3.9295 H   0  0  0  0  0  0  0  0  0  0  0  0
   -3.6076   -6.5133   -2.9855 H   0  0  0  0  0  0  0  0  0  0  0  0
   -3.2650   -4.3536   -1.8071 H   0  0  0  0  0  0  0  0  0  0  0  0
   -0.9980   -3.4027   -1.5112 H   0  0  0  0  0  0  0  0  0  0  0  0
    0.8234   -3.7357   -0.1102 H   0  0  0  0  0  0  0  0  0  0  0  0
    1.9552   -1.8029    0.8965 H   0  0  0  0  0  0  0  0  0  0  0  0
    5.7424   -2.3885    0.1510 H   0  0  0  0  0  0  0  0  0  0  0  0
    8.1984   -2.3722   -0.0484 H   0  0  0  0  0  0  0  0  0  0  0  0
    9.8595    0.9983   -2.3992 H   0  0  0  0  0  0  0  0  0  0  0  0
   12.5287    0.6582   -2.1668 H   0  0  0  0  0  0  0  0  0  0  0  0
   14.0958   -0.8878   -0.1184 H   0  0  0  0  0  0  0  0  0  0  0  0
   13.8228   -2.2812    1.9304 H   0  0  0  0  0  0  0  0  0  0  0  0
   11.5642   -2.7286    2.8622 H   0  0  0  0  0  0  0  0  0  0  0  0
    9.5292   -1.8340    1.7698 H   0  0  0  0  0  0  0  0  0  0  0  0
    8.0905    1.8419   -0.9822 H   0  0  0  0  0  0  0  0  0  0  0  0
    5.6394    1.8198   -0.8245 H   0  0  0  0  0  0  0  0  0  0  0  0
  1  2  3  0
  2  3  1  0
  3  4  1  0
  3  6  2  0
  4  5  3  0
  6  7  1  0
  6 22  1  0
  7  8  2  0
  7 21  1  0
  8  9  1  0
  8 37  1  0
  9 10  2  0
  9 38  1  0
 10 11  1  0
 10 20  1  0
 11 12  1  0
 11 19  1  0
 12 13  2  0
 12 39  1  0
 13 14  1  0
 13 40  1  0
 14 15  1  0
 14 19  2  0
 15 16  2  0
 15 41  1  0
 16 17  1  0
 16 42  1  0
 17 18  2  0
 17 43  1  0
 18 19  1  0
 18 44  1  0
 20 21  2  0
 20 45  1  0
 21 46  1  0
 22 23  2  0
 22 36  1  0
 23 24  1  0
 23 47  1  0
 24 25  2  0
 24 48  1  0
 25 26  1  0
 25 35  1  0
 26 27  1  0
 26 34  1  0
 27 28  2  0
 27 49  1  0
 28 29  1  0
 28 50  1  0
 29 30  1  0
 29 34  2  0
 30 31  2  0
 30 51  1  0
 31 32  1  0
 31 52  1  0
 32 33  2  0
 32 53  1  0
 33 34  1  0
 33 54  1  0
 35 36  2  0
 35 55  1  0
 36 56  1  0
M  END

