
     RDKit          3D

 79 85  0  0  0  0  0  0  0  0999 V2000
    0.8045    0.6907    0.2372 C   0  0  0  0  0  0  0  0  0  0  0  0
    2.0149    1.1871    0.7573 O   0  0  0  0  0  0  0  0  0  0  0  0
    2.7667    0.3934    1.5645 C   0  0  0  0  0  0  0  0  0  0  0  0
    3.9545    0.9583    2.0618 C   0  0  0  0  0  0  0  0  0  0  0  0
    4.7893    0.2226    2.8923 C   0  0  0  0  0  0  0  0  0  0  0  0
    4.4794   -1.1062    3.2532 C   0  0  0  0  0  0  0  0  0  0  0  0
    5.3862   -1.8382    4.1583 C   0  0  0  0  0  0  0  0  0  0  0  0
    6.1644   -1.1470    5.0521 N   0  0  0  0  0  0  0  0  0  0  0  0
    6.8321   -2.0421    5.7583 C   0  0  0  0  0  0  0  0  0  0  0  0
    7.7735   -1.7329    6.8156 C   0  0  0  0  0  0  0  0  0  0  0  0
    8.1620   -0.4768    7.2429 C   0  0  0  0  0  0  0  0  0  0  0  0
    9.1039   -0.5058    8.2997 C   0  0  0  0  0  0  0  0  0  0  0  0
    9.4487   -1.7846    8.6964 C   0  0  0  0  0  0  0  0  0  0  0  0
   10.3787   -2.1512    9.7453 C   0  0  0  0  0  0  0  0  0  0  0  0
   11.0755   -1.2966   10.4731 N   0  0  0  0  0  0  0  0  0  0  0  0
   11.8297   -2.0350   11.3496 C   0  0  0  0  0  0  0  0  0  0  0  0
   12.7594   -1.3564   12.2726 C   0  0  0  0  0  0  0  0  0  0  0  0
   12.4962   -0.0256   12.6621 C   0  0  0  0  0  0  0  0  0  0  0  0
   13.3530    0.6602   13.5124 C   0  0  0  0  0  0  0  0  0  0  0  0
   14.5169    0.0411   14.0021 C   0  0  0  0  0  0  0  0  0  0  0  0
   15.2927    0.7884   14.8303 O   0  0  0  0  0  0  0  0  0  0  0  0
   16.4771    0.2332   15.3512 C   0  0  0  0  0  0  0  0  0  0  0  0
   14.8055   -1.2748   13.6114 C   0  0  0  0  0  0  0  0  0  0  0  0
   13.9339   -1.9544   12.7539 C   0  0  0  0  0  0  0  0  0  0  0  0
   11.5715   -3.4005   11.1621 C   0  0  0  0  0  0  0  0  0  0  0  0
   12.0074   -4.6392   11.8219 C   0  0  0  0  0  0  0  0  0  0  0  0
   12.1207   -4.7273   13.2274 C   0  0  0  0  0  0  0  0  0  0  0  0
   12.4957   -5.9116   13.8459 C   0  0  0  0  0  0  0  0  0  0  0  0
   12.7641   -7.0645   13.0840 C   0  0  0  0  0  0  0  0  0  0  0  0
   13.1192   -8.1728   13.7798 O   0  0  0  0  0  0  0  0  0  0  0  0
   13.4020   -9.3653   13.0835 C   0  0  0  0  0  0  0  0  0  0  0  0
   12.6502   -7.0009   11.6877 C   0  0  0  0  0  0  0  0  0  0  0  0
   12.2806   -5.7985   11.0756 C   0  0  0  0  0  0  0  0  0  0  0  0
   10.6612   -3.4392   10.1205 N   0  0  0  0  0  0  0  0  0  0  0  0
   10.2056   -4.2806    9.7880 H   0  0  0  0  0  0  0  0  0  0  0  0
    8.5898   -2.9742    7.7416 S   0  0  0  0  0  0  0  0  0  0  0  0
    6.5069   -3.3102    5.3518 N   0  0  0  0  0  0  0  0  0  0  0  0
    6.9330   -4.1742    5.6649 H   0  0  0  0  0  0  0  0  0  0  0  0
    5.5988   -3.2156    4.3117 C   0  0  0  0  0  0  0  0  0  0  0  0
    5.1248   -4.4227    3.6204 C   0  0  0  0  0  0  0  0  0  0  0  0
    4.8124   -5.5958    4.3428 C   0  0  0  0  0  0  0  0  0  0  0  0
    4.4079   -6.7585    3.6977 C   0  0  0  0  0  0  0  0  0  0  0  0
    4.2915   -6.7899    2.2972 C   0  0  0  0  0  0  0  0  0  0  0  0
    3.8857   -7.9646    1.7551 O   0  0  0  0  0  0  0  0  0  0  0  0
    3.7403   -8.0677    0.3564 C   0  0  0  0  0  0  0  0  0  0  0  0
    4.5944   -5.6328    1.5612 C   0  0  0  0  0  0  0  0  0  0  0  0
    5.0101   -4.4738    2.2206 C   0  0  0  0  0  0  0  0  0  0  0  0
    3.2821   -1.6501    2.7642 C   0  0  0  0  0  0  0  0  0  0  0  0
    2.4320   -0.9198    1.9268 C   0  0  0  0  0  0  0  0  0  0  0  0
    0.3737    1.4930   -0.3773 H   0  0  0  0  0  0  0  0  0  0  0  0
    0.0869    0.4299    1.0367 H   0  0  0  0  0  0  0  0  0  0  0  0
    0.9619   -0.1999   -0.3987 H   0  0  0  0  0  0  0  0  0  0  0  0
    4.1972    1.9849    1.7793 H   0  0  0  0  0  0  0  0  0  0  0  0
    5.7035    0.6696    3.2864 H   0  0  0  0  0  0  0  0  0  0  0  0
    7.7601    0.4276    6.7864 H   0  0  0  0  0  0  0  0  0  0  0  0
    9.5367    0.3728    8.7777 H   0  0  0  0  0  0  0  0  0  0  0  0
   11.6004    0.4628   12.2751 H   0  0  0  0  0  0  0  0  0  0  0  0
   13.1461    1.6882   13.8176 H   0  0  0  0  0  0  0  0  0  0  0  0
   16.9321    1.0040   15.9882 H   0  0  0  0  0  0  0  0  0  0  0  0
   17.1928   -0.0374   14.5534 H   0  0  0  0  0  0  0  0  0  0  0  0
   16.2779   -0.6646   15.9648 H   0  0  0  0  0  0  0  0  0  0  0  0
   15.7090   -1.7788   13.9556 H   0  0  0  0  0  0  0  0  0  0  0  0
   14.1939   -2.9681   12.4441 H   0  0  0  0  0  0  0  0  0  0  0  0
   11.8987   -3.8500   13.8377 H   0  0  0  0  0  0  0  0  0  0  0  0
   12.5782   -5.9796   14.9326 H   0  0  0  0  0  0  0  0  0  0  0  0
   13.6615  -10.1167   13.8412 H   0  0  0  0  0  0  0  0  0  0  0  0
   14.2558   -9.2460   12.3919 H   0  0  0  0  0  0  0  0  0  0  0  0
   12.5284   -9.7240   12.5093 H   0  0  0  0  0  0  0  0  0  0  0  0
   12.8576   -7.8717   11.0654 H   0  0  0  0  0  0  0  0  0  0  0  0
   12.2280   -5.7630    9.9838 H   0  0  0  0  0  0  0  0  0  0  0  0
    4.8654   -5.5885    5.4351 H   0  0  0  0  0  0  0  0  0  0  0  0
    4.1606   -7.6618    4.2592 H   0  0  0  0  0  0  0  0  0  0  0  0
    3.4011   -9.0921    0.1517 H   0  0  0  0  0  0  0  0  0  0  0  0
    4.6960   -7.8961   -0.1712 H   0  0  0  0  0  0  0  0  0  0  0  0
    2.9882   -7.3577   -0.0328 H   0  0  0  0  0  0  0  0  0  0  0  0
    4.5234   -5.6250    0.4733 H   0  0  0  0  0  0  0  0  0  0  0  0
    5.2605   -3.5897    1.6313 H   0  0  0  0  0  0  0  0  0  0  0  0
    2.9871   -2.6605    3.0525 H   0  0  0  0  0  0  0  0  0  0  0  0
    1.5087   -1.3821    1.5769 H   0  0  0  0  0  0  0  0  0  0  0  0
  1  2  1  0
  1 50  1  0
  1 51  1  0
  1 52  1  0
  2  3  1  0
  3  4  2  0
  3 49  1  0
  4  5  1  0
  4 53  1  0
  5  6  2  0
  5 54  1  0
  6  7  1  0
  6 48  1  0
  7  8  1  0
  7 39  2  0
  8  9  2  0
  9 10  1  0
  9 37  1  0
 10 11  2  0
 10 36  1  0
 11 12  1  0
 11 55  1  0
 12 13  2  0
 12 56  1  0
 13 14  1  0
 13 36  1  0
 14 15  2  0
 14 34  1  0
 15 16  1  0
 16 17  1  0
 16 25  2  0
 17 18  2  0
 17 24  1  0
 18 19  1  0
 18 57  1  0
 19 20  2  0
 19 58  1  0
 20 21  1  0
 20 23  1  0
 21 22  1  0
 22 59  1  0
 22 60  1  0
 22 61  1  0
 23 24  2  0
 23 62  1  0
 24 63  1  0
 25 26  1  0
 25 34  1  0
 26 27  2  0
 26 33  1  0
 27 28  1  0
 27 64  1  0
 28 29  2  0
 28 65  1  0
 29 30  1  0
 29 32  1  0
 30 31  1  0
 31 66  1  0
 31 67  1  0
 31 68  1  0
 32 33  2  0
 32 69  1  0
 33 70  1  0
 34 35  1  0
 37 38  1  0
 37 39  1  0
 39 40  1  0
 40 41  2  0
 40 47  1  0
 41 42  1  0
 41 71  1  0
 42 43  2  0
 42 72  1  0
 43 44  1  0
 43 46  1  0
 44 45  1  0
 45 73  1  0
 45 74  1  0
 45 75  1  0
 46 47  2  0
 46 76  1  0
 47 77  1  0
 48 49  2  0
 48 78  1  0
 49 79  1  0
M  END

