
     RDKit          3D

 36 37  0  0  0  0  0  0  0  0999 V2000
    4.7271   -0.1045    1.0181 C   0  0  0  0  0  0  0  0  0  0  0  0
    3.1713   -0.2020    0.0622 S   0  0  0  0  0  0  0  0  0  0  0  0
    3.2544    1.2695   -0.9578 C   0  0  0  0  0  0  0  0  0  0  0  0
    2.4399    2.3554   -0.5861 C   0  0  0  0  0  0  0  0  0  0  0  0
    2.3540    3.5120   -1.3563 C   0  0  0  0  0  0  0  0  0  0  0  0
    3.0815    3.6304   -2.5502 C   0  0  0  0  0  0  0  0  0  0  0  0
    2.9207    4.9141   -3.3320 C   0  0  0  0  0  0  0  0  0  0  0  0
    1.9985    5.6734   -3.0919 O   0  0  0  0  0  0  0  0  0  0  0  0
    3.8821    5.1440   -4.2890 N   0  0  0  0  0  0  0  0  0  0  0  0
    3.9912    6.2160   -5.1936 C   0  0  0  0  0  0  0  0  0  0  0  0
    5.0910    6.2087   -6.0722 C   0  0  0  0  0  0  0  0  0  0  0  0
    5.2682    7.2356   -6.9946 C   0  0  0  0  0  0  0  0  0  0  0  0
    4.3536    8.2982   -7.0673 C   0  0  0  0  0  0  0  0  0  0  0  0
    4.4648    9.4365   -8.0457 C   0  0  0  0  0  0  0  0  0  0  0  0
    5.6903    9.6125   -8.6354 N   0  0  0  0  0  0  0  0  0  0  0  0
    3.5139   10.1532   -8.3082 O   0  0  0  0  0  0  0  0  0  0  0  0
    3.2495    8.2855   -6.2025 C   0  0  0  0  0  0  0  0  0  0  0  0
    3.0616    7.2706   -5.2671 C   0  0  0  0  0  0  0  0  0  0  0  0
    3.8603    2.5460   -2.9641 C   0  0  0  0  0  0  0  0  0  0  0  0
    3.9537    1.3958   -2.1773 C   0  0  0  0  0  0  0  0  0  0  0  0
    4.8007    0.3168   -2.7313 N   0  0  0  0  0  0  0  0  0  0  0  0
    5.3812   -0.4171   -1.9522 O   0  0  0  0  0  0  0  0  0  0  0  0
    4.8769    0.2440   -3.9487 O   0  0  0  0  0  0  0  0  0  0  0  0
    4.7046   -0.9713    1.6945 H   0  0  0  0  0  0  0  0  0  0  0  0
    4.7612    0.8172    1.6160 H   0  0  0  0  0  0  0  0  0  0  0  0
    5.5935   -0.1782    0.3503 H   0  0  0  0  0  0  0  0  0  0  0  0
    1.8652    2.2683    0.3379 H   0  0  0  0  0  0  0  0  0  0  0  0
    1.7188    4.3460   -1.0526 H   0  0  0  0  0  0  0  0  0  0  0  0
    4.6440    4.4789   -4.3316 H   0  0  0  0  0  0  0  0  0  0  0  0
    5.8072    5.3821   -6.0388 H   0  0  0  0  0  0  0  0  0  0  0  0
    6.1156    7.1806   -7.6821 H   0  0  0  0  0  0  0  0  0  0  0  0
    6.5315    9.2172   -8.2381 H   0  0  0  0  0  0  0  0  0  0  0  0
    5.7898   10.4257   -9.2323 H   0  0  0  0  0  0  0  0  0  0  0  0
    2.5295    9.1024   -6.2806 H   0  0  0  0  0  0  0  0  0  0  0  0
    2.2082    7.2800   -4.5940 H   0  0  0  0  0  0  0  0  0  0  0  0
    4.3879    2.5312   -3.9184 H   0  0  0  0  0  0  0  0  0  0  0  0
  1  2  1  0
  1 24  1  0
  1 25  1  0
  1 26  1  0
  2  3  2  0
  3  4  1  0
  3 20  1  0
  4  5  2  0
  4 27  1  0
  5  6  1  0
  5 28  1  0
  6  7  1  0
  6 19  2  0
  7  8  2  0
  7  9  1  0
  9 10  1  0
  9 29  1  0
 10 11  2  0
 10 18  1  0
 11 12  1  0
 11 30  1  0
 12 13  2  0
 12 31  1  0
 13 14  1  0
 13 17  1  0
 14 15  1  0
 14 16  2  0
 15 32  1  0
 15 33  1  0
 17 18  2  0
 17 34  1  0
 18 35  1  0
 19 20  1  0
 19 36  1  0
 20 21  2  0
 21 22  1  0
 21 23  1  0
M  CHG  4   2   1  21   1  22  -1  23  -1
M  END

