
     RDKit          3D

 32 33  0  0  0  0  0  0  0  0999 V2000
    1.0479   -0.2816   -0.0671 C   0  0  0  0  0  0  0  0  0  0  0  0
    2.5661   -0.3402   -0.0622 C   0  0  0  0  0  0  0  0  0  0  0  0
    3.2090   -0.0482    0.9258 O   0  0  0  0  0  0  0  0  0  0  0  0
    3.2096   -0.7225   -1.2461 N   0  0  0  0  0  0  0  0  0  0  0  0
    2.5356   -1.1003   -2.4555 C   0  0  0  0  0  0  0  0  0  0  0  0
    2.7637   -0.3787   -3.6382 C   0  0  0  0  0  0  0  0  0  0  0  0
    2.1055   -0.7484   -4.8107 C   0  0  0  0  0  0  0  0  0  0  0  0
    1.2149   -1.8262   -4.8154 C   0  0  0  0  0  0  0  0  0  0  0  0
    0.9815   -2.5647   -3.6466 C   0  0  0  0  0  0  0  0  0  0  0  0
    0.0536   -3.7559   -3.6403 C   0  0  0  0  0  0  0  0  0  0  0  0
    1.6619   -2.1942   -2.4763 C   0  0  0  0  0  0  0  0  0  0  0  0
    4.6372   -0.5964   -1.2840 C   0  0  0  0  0  0  0  0  0  0  0  0
    5.2211    0.6795   -1.3121 C   0  0  0  0  0  0  0  0  0  0  0  0
    6.6039    0.8419   -1.3720 C   0  0  0  0  0  0  0  0  0  0  0  0
    7.4334   -0.2827   -1.4077 C   0  0  0  0  0  0  0  0  0  0  0  0
    6.8765   -1.5613   -1.3661 C   0  0  0  0  0  0  0  0  0  0  0  0
    5.4878   -1.7154   -1.2935 C   0  0  0  0  0  0  0  0  0  0  0  0
    4.7868   -3.4829   -1.1657 Br  0  0  0  0  0  0  0  0  0  0  0  0
    0.7517    0.3824    0.7551 H   0  0  0  0  0  0  0  0  0  0  0  0
    0.6224   -1.2772    0.1318 H   0  0  0  0  0  0  0  0  0  0  0  0
    0.6303    0.0778   -1.0174 H   0  0  0  0  0  0  0  0  0  0  0  0
    3.4527    0.4676   -3.6329 H   0  0  0  0  0  0  0  0  0  0  0  0
    2.2816   -0.1838   -5.7299 H   0  0  0  0  0  0  0  0  0  0  0  0
    0.7005   -2.1019   -5.7400 H   0  0  0  0  0  0  0  0  0  0  0  0
   -0.5061   -3.8374   -4.5836 H   0  0  0  0  0  0  0  0  0  0  0  0
   -0.6759   -3.6954   -2.8164 H   0  0  0  0  0  0  0  0  0  0  0  0
    0.6158   -4.6954   -3.5035 H   0  0  0  0  0  0  0  0  0  0  0  0
    1.5241   -2.7779   -1.5643 H   0  0  0  0  0  0  0  0  0  0  0  0
    4.5633    1.5501   -1.2775 H   0  0  0  0  0  0  0  0  0  0  0  0
    7.0335    1.8461   -1.3918 H   0  0  0  0  0  0  0  0  0  0  0  0
    8.5190   -0.1691   -1.4592 H   0  0  0  0  0  0  0  0  0  0  0  0
    7.5142   -2.4465   -1.3771 H   0  0  0  0  0  0  0  0  0  0  0  0
  1  2  1  0
  1 19  1  0
  1 20  1  0
  1 21  1  0
  2  3  2  0
  2  4  1  0
  4  5  1  0
  4 12  1  0
  5  6  2  0
  5 11  1  0
  6  7  1  0
  6 22  1  0
  7  8  2  0
  7 23  1  0
  8  9  1  0
  8 24  1  0
  9 10  1  0
  9 11  2  0
 10 25  1  0
 10 26  1  0
 10 27  1  0
 11 28  1  0
 12 13  2  0
 12 17  1  0
 13 14  1  0
 13 29  1  0
 14 15  2  0
 14 30  1  0
 15 16  1  0
 15 31  1  0
 16 17  2  0
 16 32  1  0
 17 18  1  0
M  END

