
     RDKit          3D

 43 45  0  0  0  0  0  0  0  0999 V2000
    1.1062   -0.3861   -0.3243 C   0  0  0  0  0  0  0  0  0  0  0  0
    2.6157   -0.2993   -0.5886 C   0  0  1  0  0  0  0  0  0  0  0  0
    3.0963   -1.2990   -1.6612 C   0  0  0  0  0  0  0  0  0  0  0  0
    2.6645   -0.9149   -3.0837 C   0  0  0  0  0  0  0  0  0  0  0  0
    3.1181    0.5074   -3.4373 C   0  0  0  0  0  0  0  0  0  0  0  0
    2.6476    1.5249   -2.3870 C   0  0  0  0  0  0  0  0  0  0  0  0
    3.0671    1.1486   -0.9519 C   0  0  2  0  0  0  0  0  0  0  0  0
    4.4970    1.3548   -0.7959 N   0  0  0  0  0  0  0  0  0  0  0  0
    5.1807    1.4613    0.4024 C   0  0  0  0  0  0  0  0  0  0  0  0
    6.5924    1.4592    0.3969 C   0  0  0  0  0  0  0  0  0  0  0  0
    7.2918    1.5988    1.5917 C   0  0  0  0  0  0  0  0  0  0  0  0
    6.6436    1.7463    2.8194 C   0  0  0  0  0  0  0  0  0  0  0  0
    5.2360    1.7484    2.8421 C   0  0  0  0  0  0  0  0  0  0  0  0
    4.5171    1.9127    4.0457 N   0  0  0  0  0  0  0  0  0  0  0  0
    3.0628    2.0183    4.0801 C   0  0  0  0  0  0  0  0  0  0  0  0
    2.7745    2.3765    5.5478 C   0  0  0  0  0  0  0  0  0  0  0  0
    3.9416    1.8276    6.2060 N   0  0  0  0  0  0  0  0  0  0  0  0
    5.0250    1.7501    5.3429 C   0  0  0  0  0  0  0  0  0  0  0  0
    6.1764    1.5689    5.6770 O   0  0  0  0  0  0  0  0  0  0  0  0
    4.5166    1.6009    1.6393 C   0  0  0  0  0  0  0  0  0  0  0  0
    0.8254   -1.3981    0.0099 H   0  0  0  0  0  0  0  0  0  0  0  0
    0.5007   -0.1574   -1.2155 H   0  0  0  0  0  0  0  0  0  0  0  0
    0.8006    0.3193    0.4666 H   0  0  0  0  0  0  0  0  0  0  0  0
    3.1229   -0.5588    0.3559 H   0  0  0  0  0  0  0  0  0  0  0  0
    2.7391   -2.3125   -1.4113 H   0  0  0  0  0  0  0  0  0  0  0  0
    4.1991   -1.3480   -1.6253 H   0  0  0  0  0  0  0  0  0  0  0  0
    1.5655   -0.9789   -3.1751 H   0  0  0  0  0  0  0  0  0  0  0  0
    3.0720   -1.6379   -3.8100 H   0  0  0  0  0  0  0  0  0  0  0  0
    2.7430    0.7993   -4.4324 H   0  0  0  0  0  0  0  0  0  0  0  0
    4.2213    0.5273   -3.5217 H   0  0  0  0  0  0  0  0  0  0  0  0
    1.5476    1.5908   -2.4233 H   0  0  0  0  0  0  0  0  0  0  0  0
    3.0291    2.5329   -2.6183 H   0  0  0  0  0  0  0  0  0  0  0  0
    2.5567    1.8471   -0.2657 H   0  0  0  0  0  0  0  0  0  0  0  0
    5.0735    1.1661   -1.6052 H   0  0  0  0  0  0  0  0  0  0  0  0
    7.1289    1.3518   -0.5502 H   0  0  0  0  0  0  0  0  0  0  0  0
    8.3853    1.5954    1.5709 H   0  0  0  0  0  0  0  0  0  0  0  0
    7.2019    1.8441    3.7457 H   0  0  0  0  0  0  0  0  0  0  0  0
    2.5887    1.0581    3.8014 H   0  0  0  0  0  0  0  0  0  0  0  0
    2.6979    2.7900    3.3863 H   0  0  0  0  0  0  0  0  0  0  0  0
    1.8368    1.9232    5.9048 H   0  0  0  0  0  0  0  0  0  0  0  0
    2.6951    3.4736    5.6778 H   0  0  0  0  0  0  0  0  0  0  0  0
    4.1540    2.0288    7.1762 H   0  0  0  0  0  0  0  0  0  0  0  0
    3.4299    1.5878    1.6573 H   0  0  0  0  0  0  0  0  0  0  0  0
  1  2  1  0
  1 21  1  0
  1 22  1  0
  1 23  1  0
  2  3  1  0
  2  7  1  0
  2 24  1  1
  3  4  1  0
  3 25  1  0
  3 26  1  0
  4  5  1  0
  4 27  1  0
  4 28  1  0
  5  6  1  0
  5 29  1  0
  5 30  1  0
  6  7  1  0
  6 31  1  0
  6 32  1  0
  7  8  1  0
  7 33  1  1
  8  9  1  0
  8 34  1  0
  9 10  2  0
  9 20  1  0
 10 11  1  0
 10 35  1  0
 11 12  2  0
 11 36  1  0
 12 13  1  0
 12 37  1  0
 13 14  1  0
 13 20  2  0
 14 15  1  0
 14 18  1  0
 15 16  1  0
 15 38  1  0
 15 39  1  0
 16 17  1  0
 16 40  1  0
 16 41  1  0
 17 18  1  0
 17 42  1  0
 18 19  2  0
 20 43  1  0
M  END

