
     RDKit          3D

 37 39  0  0  0  0  0  0  0  0999 V2000
    1.1562   -1.0776    0.9540 O   0  0  0  0  0  0  0  0  0  0  0  0
    2.1512   -0.5851    0.4364 C   0  0  0  0  0  0  0  0  0  0  0  0
    2.6975    0.6001    0.8083 N   0  0  0  0  0  0  0  0  0  0  0  0
    2.1283    1.3863    1.8873 C   0  0  1  0  0  0  0  0  0  0  0  0
    2.7208    1.0241    3.2701 C   0  0  0  0  0  0  0  0  0  0  0  0
    4.2088    1.3667    3.4272 C   0  0  0  0  0  0  0  0  0  0  0  0
    4.4965    2.8630    3.2779 C   0  0  0  0  0  0  0  0  0  0  0  0
    3.9694    3.4755    1.6514 S   0  0  2  0  0  0  0  0  0  0  0  0
    4.7217    2.7169    0.6297 O   0  0  0  0  0  0  0  0  0  0  0  0
    3.9863    4.9420    1.6522 O   0  0  0  0  0  0  0  0  0  0  0  0
    2.2483    2.8900    1.5909 C   0  0  0  0  0  0  0  0  0  0  0  0
    2.8784   -1.2763   -0.6995 C   0  0  0  0  0  0  0  0  0  0  0  0
    2.3640   -2.5101   -1.1801 C   0  0  0  0  0  0  0  0  0  0  0  0
    3.0262   -3.1363   -2.2116 C   0  0  0  0  0  0  0  0  0  0  0  0
    4.1930   -2.5413   -2.7611 C   0  0  0  0  0  0  0  0  0  0  0  0
    4.9422   -3.1133   -3.8253 C   0  0  0  0  0  0  0  0  0  0  0  0
    6.0671   -2.4864   -4.3145 C   0  0  0  0  0  0  0  0  0  0  0  0
    6.4867   -1.2519   -3.7505 C   0  0  0  0  0  0  0  0  0  0  0  0
    7.9173   -0.4872   -4.3971 Cl  0  0  0  0  0  0  0  0  0  0  0  0
    5.7922   -0.6595   -2.7181 C   0  0  0  0  0  0  0  0  0  0  0  0
    4.6285   -1.2939   -2.2010 C   0  0  0  0  0  0  0  0  0  0  0  0
    3.9569   -0.6955   -1.1837 N   0  0  0  0  0  0  0  0  0  0  0  0
    3.5406    0.9164    0.3253 H   0  0  0  0  0  0  0  0  0  0  0  0
    1.0561    1.1349    1.9158 H   0  0  0  0  0  0  0  0  0  0  0  0
    2.5633   -0.0532    3.4301 H   0  0  0  0  0  0  0  0  0  0  0  0
    2.1343    1.5463    4.0477 H   0  0  0  0  0  0  0  0  0  0  0  0
    4.8027    0.8142    2.6813 H   0  0  0  0  0  0  0  0  0  0  0  0
    4.5663    1.0406    4.4177 H   0  0  0  0  0  0  0  0  0  0  0  0
    5.5697    3.1045    3.3185 H   0  0  0  0  0  0  0  0  0  0  0  0
    3.9678    3.4821    4.0196 H   0  0  0  0  0  0  0  0  0  0  0  0
    1.9015    3.1488    0.5791 H   0  0  0  0  0  0  0  0  0  0  0  0
    1.6966    3.4957    2.3246 H   0  0  0  0  0  0  0  0  0  0  0  0
    1.4649   -2.9169   -0.7165 H   0  0  0  0  0  0  0  0  0  0  0  0
    2.6673   -4.0873   -2.6153 H   0  0  0  0  0  0  0  0  0  0  0  0
    4.6149   -4.0634   -4.2559 H   0  0  0  0  0  0  0  0  0  0  0  0
    6.6451   -2.9218   -5.1311 H   0  0  0  0  0  0  0  0  0  0  0  0
    6.1065    0.2883   -2.2804 H   0  0  0  0  0  0  0  0  0  0  0  0
  1  2  2  0
  2  3  1  0
  2 12  1  0
  3  4  1  0
  3 23  1  0
  4  5  1  0
  4 11  1  0
  4 24  1  1
  5  6  1  0
  5 25  1  0
  5 26  1  0
  6  7  1  0
  6 27  1  0
  6 28  1  0
  8  7  1  1
  7 29  1  0
  7 30  1  0
  8  9  2  0
  8 10  2  0
  8 11  1  0
 11 31  1  0
 11 32  1  0
 12 13  2  0
 12 22  1  0
 13 14  1  0
 13 33  1  0
 14 15  2  0
 14 34  1  0
 15 16  1  0
 15 21  1  0
 16 17  2  0
 16 35  1  0
 17 18  1  0
 17 36  1  0
 18 19  1  0
 18 20  2  0
 20 21  1  0
 20 37  1  0
 21 22  2  0
M  END

