
     RDKit          3D

 54 58  0  0  0  0  0  0  0  0999 V2000
    1.1617    0.8830    0.1579 O   0  0  0  0  0  0  0  0  0  0  0  0
    2.5307    0.4032   -0.0995 S   0  0  1  0  0  0  0  0  0  0  0  0
    3.0624    0.3015   -1.4575 O   0  0  0  0  0  0  0  0  0  0  0  0
    3.6577    1.4650    0.8715 C   0  0  0  0  0  0  0  0  0  0  0  0
    3.1116    2.5025    1.6262 C   0  0  0  0  0  0  0  0  0  0  0  0
    4.0155    3.3526    2.2704 C   0  0  0  0  0  0  0  0  0  0  0  0
    5.3843    3.1145    2.1281 C   0  0  0  0  0  0  0  0  0  0  0  0
    5.8034    2.0333    1.3414 C   0  0  0  0  0  0  0  0  0  0  0  0
    4.9482    1.2228    0.7163 N   0  0  0  0  0  0  0  0  0  0  0  0
    2.6897   -1.2328    0.7478 C   0  0  0  0  0  0  0  0  0  0  0  0
    3.1314   -1.1361    1.9852 N   0  0  0  0  0  0  0  0  0  0  0  0
    3.3110   -2.2610    2.6920 C   0  0  0  0  0  0  0  0  0  0  0  0
    3.8285   -2.1627    4.0756 C   0  0  0  0  0  0  0  0  0  0  0  0
    4.1017   -0.9062    4.6455 C   0  0  0  0  0  0  0  0  0  0  0  0
    4.5882   -0.8160    5.9496 C   0  0  0  0  0  0  0  0  0  0  0  0
    4.8098   -1.9760    6.6999 C   0  0  0  0  0  0  0  0  0  0  0  0
    4.5411   -3.2292    6.1389 C   0  0  0  0  0  0  0  0  0  0  0  0
    4.0528   -3.3246    4.8359 C   0  0  0  0  0  0  0  0  0  0  0  0
    3.0369   -3.4719    2.1861 N   0  0  0  0  0  0  0  0  0  0  0  0
    2.5584   -3.5497    0.9612 C   0  0  0  0  0  0  0  0  0  0  0  0
    2.1991   -5.2836    0.4276 S   0  0  1  0  0  0  0  0  0  0  0  0
    0.9069   -5.3246   -0.2550 O   0  0  0  0  0  0  0  0  0  0  0  0
    3.4245   -5.7939   -0.2115 O   0  0  0  0  0  0  0  0  0  0  0  0
    2.0250   -6.1617    2.0211 C   0  0  0  0  0  0  0  0  0  0  0  0
    2.9741   -7.1259    2.3583 C   0  0  0  0  0  0  0  0  0  0  0  0
    2.7463   -7.8455    3.5352 C   0  0  0  0  0  0  0  0  0  0  0  0
    1.6080   -7.5584    4.2919 C   0  0  0  0  0  0  0  0  0  0  0  0
    0.7324   -6.5610    3.8425 C   0  0  0  0  0  0  0  0  0  0  0  0
    0.9374   -5.8760    2.7166 N   0  0  0  0  0  0  0  0  0  0  0  0
    2.3454   -2.4442    0.1075 C   0  0  0  0  0  0  0  0  0  0  0  0
    1.8279   -2.5431   -1.2812 C   0  0  0  0  0  0  0  0  0  0  0  0
    2.4955   -3.3337   -2.2321 C   0  0  0  0  0  0  0  0  0  0  0  0
    2.0101   -3.4195   -3.5369 C   0  0  0  0  0  0  0  0  0  0  0  0
    0.8510   -2.7301   -3.9037 C   0  0  0  0  0  0  0  0  0  0  0  0
    0.1800   -1.9474   -2.9602 C   0  0  0  0  0  0  0  0  0  0  0  0
    0.6661   -1.8471   -1.6567 C   0  0  0  0  0  0  0  0  0  0  0  0
    2.0299    2.6246    1.6922 H   0  0  0  0  0  0  0  0  0  0  0  0
    3.6538    4.1886    2.8744 H   0  0  0  0  0  0  0  0  0  0  0  0
    6.1220    3.7561    2.6151 H   0  0  0  0  0  0  0  0  0  0  0  0
    6.8697    1.8190    1.2098 H   0  0  0  0  0  0  0  0  0  0  0  0
    3.9257   -0.0079    4.0528 H   0  0  0  0  0  0  0  0  0  0  0  0
    4.7962    0.1649    6.3844 H   0  0  0  0  0  0  0  0  0  0  0  0
    5.1918   -1.9033    7.7215 H   0  0  0  0  0  0  0  0  0  0  0  0
    4.7136   -4.1377    6.7215 H   0  0  0  0  0  0  0  0  0  0  0  0
    3.8404   -4.2968    4.3899 H   0  0  0  0  0  0  0  0  0  0  0  0
    3.8406   -7.2929    1.7176 H   0  0  0  0  0  0  0  0  0  0  0  0
    3.4491   -8.6191    3.8549 H   0  0  0  0  0  0  0  0  0  0  0  0
    1.3947   -8.0986    5.2169 H   0  0  0  0  0  0  0  0  0  0  0  0
   -0.1692   -6.3115    4.4127 H   0  0  0  0  0  0  0  0  0  0  0  0
    3.3936   -3.8855   -1.9498 H   0  0  0  0  0  0  0  0  0  0  0  0
    2.5406   -4.0324   -4.2696 H   0  0  0  0  0  0  0  0  0  0  0  0
    0.4703   -2.8031   -4.9257 H   0  0  0  0  0  0  0  0  0  0  0  0
   -0.7275   -1.4067   -3.2395 H   0  0  0  0  0  0  0  0  0  0  0  0
    0.1442   -1.2234   -0.9292 H   0  0  0  0  0  0  0  0  0  0  0  0
  1  2  2  0
  2  3  2  0
  2  4  1  1
  2 10  1  0
  4  5  2  0
  4  9  1  0
  5  6  1  0
  5 37  1  0
  6  7  2  0
  6 38  1  0
  7  8  1  0
  7 39  1  0
  8  9  2  0
  8 40  1  0
 10 11  2  0
 10 30  1  0
 11 12  1  0
 12 13  1  0
 12 19  2  0
 13 14  2  0
 13 18  1  0
 14 15  1  0
 14 41  1  0
 15 16  2  0
 15 42  1  0
 16 17  1  0
 16 43  1  0
 17 18  2  0
 17 44  1  0
 18 45  1  0
 19 20  1  0
 21 20  1  1
 20 30  2  0
 21 22  2  0
 21 23  2  0
 21 24  1  0
 24 25  2  0
 24 29  1  0
 25 26  1  0
 25 46  1  0
 26 27  2  0
 26 47  1  0
 27 28  1  0
 27 48  1  0
 28 29  2  0
 28 49  1  0
 30 31  1  0
 31 32  2  0
 31 36  1  0
 32 33  1  0
 32 50  1  0
 33 34  2  0
 33 51  1  0
 34 35  1  0
 34 52  1  0
 35 36  2  0
 35 53  1  0
 36 54  1  0
M  END

