
     RDKit          3D

 52 54  0  0  0  0  0  0  0  0999 V2000
    1.0187   -1.9272   -2.7960 C   0  0  0  0  0  0  0  0  0  0  0  0
    2.3029   -2.4568   -3.4036 C   0  0  0  0  0  0  0  0  0  0  0  0
    2.4269   -3.8323   -3.0528 O   0  0  0  0  0  0  0  0  0  0  0  0
    3.5015   -4.5659   -3.4561 C   0  0  0  0  0  0  0  0  0  0  0  0
    4.5524   -4.0047   -4.2002 C   0  0  0  0  0  0  0  0  0  0  0  0
    5.6414   -4.7883   -4.5886 C   0  0  0  0  0  0  0  0  0  0  0  0
    5.6989   -6.1391   -4.2430 C   0  0  0  0  0  0  0  0  0  0  0  0
    4.6534   -6.6948   -3.5076 C   0  0  0  0  0  0  0  0  0  0  0  0
    3.5430   -5.9398   -3.1015 C   0  0  0  0  0  0  0  0  0  0  0  0
    2.4952   -6.7058   -2.3213 C   0  0  0  0  0  0  0  0  0  0  0  0
    2.6451   -7.8974   -2.0712 O   0  0  0  0  0  0  0  0  0  0  0  0
    1.3850   -6.0348   -1.9156 N   0  0  0  0  0  0  0  0  0  0  0  0
    0.3441   -6.7150   -1.1969 C   0  0  0  0  0  0  0  0  0  0  0  0
   -0.8674   -5.8193   -1.0460 C   0  0  0  0  0  0  0  0  0  0  0  0
   -0.9215   -4.6675   -1.4148 O   0  0  0  0  0  0  0  0  0  0  0  0
   -1.8664   -6.4744   -0.4466 O   0  0  0  0  0  0  0  0  0  0  0  0
   -3.1017   -5.7590   -0.1838 C   0  0  0  0  0  0  0  0  0  0  0  0
   -3.0995   -5.0679    1.1387 C   0  0  0  0  0  0  0  0  0  0  0  0
   -2.9372   -3.6818    1.4408 C   0  0  0  0  0  0  0  0  0  0  0  0
   -2.7495   -2.5429    0.4877 C   0  0  0  0  0  0  0  0  0  0  0  0
   -2.9904   -3.4704    2.7491 N   0  0  0  0  0  0  0  0  0  0  0  0
   -3.1762   -4.6814    3.3328 N   0  0  0  0  0  0  0  0  0  0  0  0
   -3.2953   -4.7575    4.7516 C   0  0  0  0  0  0  0  0  0  0  0  0
   -4.0007   -3.7456    5.4173 C   0  0  0  0  0  0  0  0  0  0  0  0
   -4.1140   -3.7834    6.8073 C   0  0  0  0  0  0  0  0  0  0  0  0
   -3.5341   -4.8266    7.5369 C   0  0  0  0  0  0  0  0  0  0  0  0
   -2.8255   -5.8275    6.8671 C   0  0  0  0  0  0  0  0  0  0  0  0
   -2.6937   -5.7941    5.4766 C   0  0  0  0  0  0  0  0  0  0  0  0
   -3.2545   -5.6608    2.3840 C   0  0  0  0  0  0  0  0  0  0  0  0
   -3.5914   -7.3149    2.7240 Cl  0  0  0  0  0  0  0  0  0  0  0  0
    0.8816   -0.8707   -3.0742 H   0  0  0  0  0  0  0  0  0  0  0  0
    1.0459   -1.9979   -1.6982 H   0  0  0  0  0  0  0  0  0  0  0  0
    0.1496   -2.5018   -3.1486 H   0  0  0  0  0  0  0  0  0  0  0  0
    3.1774   -1.8969   -3.0253 H   0  0  0  0  0  0  0  0  0  0  0  0
    2.2921   -2.3569   -4.5045 H   0  0  0  0  0  0  0  0  0  0  0  0
    4.5280   -2.9523   -4.4800 H   0  0  0  0  0  0  0  0  0  0  0  0
    6.4482   -4.3300   -5.1667 H   0  0  0  0  0  0  0  0  0  0  0  0
    6.5493   -6.7546   -4.5445 H   0  0  0  0  0  0  0  0  0  0  0  0
    4.6562   -7.7473   -3.2186 H   0  0  0  0  0  0  0  0  0  0  0  0
    1.2710   -5.0490   -2.1349 H   0  0  0  0  0  0  0  0  0  0  0  0
    0.6635   -7.0304   -0.1850 H   0  0  0  0  0  0  0  0  0  0  0  0
    0.0458   -7.6497   -1.7025 H   0  0  0  0  0  0  0  0  0  0  0  0
   -3.8688   -6.5444   -0.2129 H   0  0  0  0  0  0  0  0  0  0  0  0
   -3.2777   -5.0438   -0.9979 H   0  0  0  0  0  0  0  0  0  0  0  0
   -1.9510   -2.7633   -0.2356 H   0  0  0  0  0  0  0  0  0  0  0  0
   -2.5007   -1.6314    1.0485 H   0  0  0  0  0  0  0  0  0  0  0  0
   -3.6712   -2.3493   -0.0874 H   0  0  0  0  0  0  0  0  0  0  0  0
   -4.4406   -2.9366    4.8339 H   0  0  0  0  0  0  0  0  0  0  0  0
   -4.6641   -2.9926    7.3233 H   0  0  0  0  0  0  0  0  0  0  0  0
   -3.6291   -4.8554    8.6250 H   0  0  0  0  0  0  0  0  0  0  0  0
   -2.3559   -6.6381    7.4297 H   0  0  0  0  0  0  0  0  0  0  0  0
   -2.1188   -6.5639    4.9623 H   0  0  0  0  0  0  0  0  0  0  0  0
  1  2  1  0
  1 31  1  0
  1 32  1  0
  1 33  1  0
  2  3  1  0
  2 34  1  0
  2 35  1  0
  3  4  1  0
  4  5  2  0
  4  9  1  0
  5  6  1  0
  5 36  1  0
  6  7  2  0
  6 37  1  0
  7  8  1  0
  7 38  1  0
  8  9  2  0
  8 39  1  0
  9 10  1  0
 10 11  2  0
 10 12  1  0
 12 13  1  0
 12 40  1  0
 13 14  1  0
 13 41  1  0
 13 42  1  0
 14 15  2  0
 14 16  1  0
 16 17  1  0
 17 18  1  0
 17 43  1  0
 17 44  1  0
 18 19  1  0
 18 29  2  0
 19 20  1  0
 19 21  2  0
 20 45  1  0
 20 46  1  0
 20 47  1  0
 21 22  1  0
 22 23  1  0
 22 29  1  0
 23 24  2  0
 23 28  1  0
 24 25  1  0
 24 48  1  0
 25 26  2  0
 25 49  1  0
 26 27  1  0
 26 50  1  0
 27 28  2  0
 27 51  1  0
 28 52  1  0
 29 30  1  0
M  END

