
     RDKit          3D

 63 65  0  0  0  0  0  0  0  0999 V2000
    1.9175   -0.2548    0.7210 C   0  0  0  0  0  0  0  0  0  0  0  0
    3.2243   -0.3710   -0.0754 C   0  0  1  0  0  0  0  0  0  0  0  0
    4.0603   -0.1600    0.6020 H   0  0  0  0  0  0  0  0  0  0  0  0
    3.4396   -1.7692   -0.6661 C   0  0  0  0  0  0  0  0  0  0  0  0
    2.5527   -2.0085   -1.7944 N   0  0  0  0  0  0  0  0  0  0  0  0
    1.7937   -3.1514   -1.8477 C   0  0  0  0  0  0  0  0  0  0  0  0
    1.7554   -3.9769   -0.9550 O   0  0  0  0  0  0  0  0  0  0  0  0
    1.1024   -3.2258   -3.0064 O   0  0  0  0  0  0  0  0  0  0  0  0
    0.2036   -4.3466   -3.2980 C   0  0  1  0  0  0  0  0  0  0  0  0
   -0.9307   -4.3937   -2.2687 C   0  0  0  0  0  0  0  0  0  0  0  0
   -0.3398   -3.9950   -4.6846 C   0  0  0  0  0  0  0  0  0  0  0  0
    0.9958   -5.6575   -3.3445 C   0  0  0  0  0  0  0  0  0  0  0  0
    2.6969   -1.0372   -2.8623 C   0  0  0  0  0  0  0  0  0  0  0  0
    2.5030    0.3884   -2.3350 C   0  0  0  0  0  0  0  0  0  0  0  0
    3.3120    0.6385   -1.1514 N   0  0  0  0  0  0  0  0  0  0  0  0
    3.7726    1.9089   -0.8410 C   0  0  0  0  0  0  0  0  0  0  0  0
    3.5795    3.0191   -1.7041 C   0  0  0  0  0  0  0  0  0  0  0  0
    4.1193    4.2607   -1.3563 C   0  0  0  0  0  0  0  0  0  0  0  0
    4.0004    5.3702   -2.1039 O   0  0  0  0  0  0  0  0  0  0  0  0
    3.3145    5.3371   -3.3466 C   0  0  0  0  0  0  0  0  0  0  0  0
    3.3754    6.7415   -3.9440 C   0  0  0  0  0  0  0  0  0  0  0  0
    2.7302    6.7662   -5.2490 N   0  0  0  0  0  0  0  0  0  0  0  0
    1.8621    7.9057   -5.5406 C   0  0  0  0  0  0  0  0  0  0  0  0
    2.6407    9.1218   -6.0504 C   0  0  0  0  0  0  0  0  0  0  0  0
    3.4317    8.7737   -7.1723 O   0  0  0  0  0  0  0  0  0  0  0  0
    4.3424    7.7301   -6.8800 C   0  0  0  0  0  0  0  0  0  0  0  0
    3.6033    6.4808   -6.3889 C   0  0  0  0  0  0  0  0  0  0  0  0
    4.8254    4.3659   -0.1366 C   0  0  0  0  0  0  0  0  0  0  0  0
    5.5851    6.0159    0.4162 Br  0  0  0  0  0  0  0  0  0  0  0  0
    4.9325    3.2280    0.6552 C   0  0  0  0  0  0  0  0  0  0  0  0
    4.4266    2.0424    0.3239 N   0  0  0  0  0  0  0  0  0  0  0  0
    1.9178   -0.9683    1.5599 H   0  0  0  0  0  0  0  0  0  0  0  0
    1.0333   -0.4730    0.1016 H   0  0  0  0  0  0  0  0  0  0  0  0
    1.8128    0.7582    1.1377 H   0  0  0  0  0  0  0  0  0  0  0  0
    3.2514   -2.5414    0.0892 H   0  0  0  0  0  0  0  0  0  0  0  0
    4.4898   -1.8607   -1.0033 H   0  0  0  0  0  0  0  0  0  0  0  0
   -1.4543   -3.4254   -2.2314 H   0  0  0  0  0  0  0  0  0  0  0  0
   -0.5453   -4.6272   -1.2685 H   0  0  0  0  0  0  0  0  0  0  0  0
   -1.6618   -5.1651   -2.5572 H   0  0  0  0  0  0  0  0  0  0  0  0
   -0.8745   -3.0332   -4.6603 H   0  0  0  0  0  0  0  0  0  0  0  0
   -1.0388   -4.7724   -5.0284 H   0  0  0  0  0  0  0  0  0  0  0  0
    0.4802   -3.9171   -5.4148 H   0  0  0  0  0  0  0  0  0  0  0  0
    1.4046   -5.9058   -2.3573 H   0  0  0  0  0  0  0  0  0  0  0  0
    1.8262   -5.5773   -4.0636 H   0  0  0  0  0  0  0  0  0  0  0  0
    0.3380   -6.4772   -3.6737 H   0  0  0  0  0  0  0  0  0  0  0  0
    1.9665   -1.2448   -3.6513 H   0  0  0  0  0  0  0  0  0  0  0  0
    3.7114   -1.1209   -3.3000 H   0  0  0  0  0  0  0  0  0  0  0  0
    1.4262    0.5658   -2.1366 H   0  0  0  0  0  0  0  0  0  0  0  0
    2.8025    1.0749   -3.1375 H   0  0  0  0  0  0  0  0  0  0  0  0
    3.0069    2.9265   -2.6218 H   0  0  0  0  0  0  0  0  0  0  0  0
    2.2615    5.0351   -3.2080 H   0  0  0  0  0  0  0  0  0  0  0  0
    3.7892    4.6046   -4.0249 H   0  0  0  0  0  0  0  0  0  0  0  0
    4.4338    7.0701   -3.9576 H   0  0  0  0  0  0  0  0  0  0  0  0
    2.8548    7.4274   -3.2578 H   0  0  0  0  0  0  0  0  0  0  0  0
    1.2759    8.1648   -4.6444 H   0  0  0  0  0  0  0  0  0  0  0  0
    1.1444    7.6026   -6.3251 H   0  0  0  0  0  0  0  0  0  0  0  0
    3.2822    9.5327   -5.2412 H   0  0  0  0  0  0  0  0  0  0  0  0
    1.9567    9.9215   -6.3766 H   0  0  0  0  0  0  0  0  0  0  0  0
    5.0759    8.0663   -6.1163 H   0  0  0  0  0  0  0  0  0  0  0  0
    4.8982    7.5197   -7.8075 H   0  0  0  0  0  0  0  0  0  0  0  0
    4.3219    5.6887   -6.1225 H   0  0  0  0  0  0  0  0  0  0  0  0
    2.9844    6.0917   -7.2178 H   0  0  0  0  0  0  0  0  0  0  0  0
    5.4605    3.2911    1.6134 H   0  0  0  0  0  0  0  0  0  0  0  0
  1  2  1  0
  1 32  1  0
  1 33  1  0
  1 34  1  0
  2  3  1  1
  2  4  1  0
  2 15  1  0
  4  5  1  0
  4 35  1  0
  4 36  1  0
  5  6  1  0
  5 13  1  0
  6  7  2  0
  6  8  1  0
  9  8  1  1
  9 10  1  0
  9 11  1  0
  9 12  1  0
 10 37  1  0
 10 38  1  0
 10 39  1  0
 11 40  1  0
 11 41  1  0
 11 42  1  0
 12 43  1  0
 12 44  1  0
 12 45  1  0
 13 14  1  0
 13 46  1  0
 13 47  1  0
 14 15  1  0
 14 48  1  0
 14 49  1  0
 15 16  1  0
 16 17  2  0
 16 31  1  0
 17 18  1  0
 17 50  1  0
 18 19  1  0
 18 28  2  0
 19 20  1  0
 20 21  1  0
 20 51  1  0
 20 52  1  0
 21 22  1  0
 21 53  1  0
 21 54  1  0
 22 23  1  0
 22 27  1  0
 23 24  1  0
 23 55  1  0
 23 56  1  0
 24 25  1  0
 24 57  1  0
 24 58  1  0
 25 26  1  0
 26 27  1  0
 26 59  1  0
 26 60  1  0
 27 61  1  0
 27 62  1  0
 28 29  1  0
 28 30  1  0
 30 31  2  0
 30 63  1  0
M  END

