
     RDKit          3D

 35 36  0  0  0  0  0  0  0  0999 V2000
    2.2511    1.3909   -0.3324 C   0  0  0  0  0  0  0  0  0  0  0  0
    2.1643    0.0211   -0.0020 O   0  0  0  0  0  0  0  0  0  0  0  0
    2.8217   -0.9141   -0.7665 C   0  0  0  0  0  0  0  0  0  0  0  0
    3.5835   -0.5602   -1.8866 C   0  0  0  0  0  0  0  0  0  0  0  0
    4.2420   -1.5276   -2.6465 C   0  0  0  0  0  0  0  0  0  0  0  0
    4.1592   -2.8890   -2.3093 C   0  0  0  0  0  0  0  0  0  0  0  0
    4.8533   -3.8581   -3.0247 N   0  0  0  0  0  0  0  0  0  0  0  0
    3.3895   -3.2305   -1.1864 C   0  0  0  0  0  0  0  0  0  0  0  0
    2.7184   -2.2816   -0.4049 C   0  0  0  0  0  0  0  0  0  0  0  0
    1.9404   -2.8685    0.7589 C   0  0  0  0  0  0  0  0  0  0  0  0
    1.9240   -4.0780    0.9417 O   0  0  0  0  0  0  0  0  0  0  0  0
    1.2812   -1.9755    1.5659 N   0  0  0  0  0  0  0  0  0  0  0  0
    0.4969   -2.2367    2.6983 C   0  0  0  0  0  0  0  0  0  0  0  0
    0.2564   -3.5235    3.2120 C   0  0  0  0  0  0  0  0  0  0  0  0
   -0.5407   -3.6681    4.3477 C   0  0  0  0  0  0  0  0  0  0  0  0
   -1.1000   -2.5557    4.9776 C   0  0  0  0  0  0  0  0  0  0  0  0
   -2.1831   -2.8365    6.5326 Br  0  0  0  0  0  0  0  0  0  0  0  0
   -0.8804   -1.2539    4.4912 C   0  0  0  0  0  0  0  0  0  0  0  0
   -1.4694   -0.0331    5.1489 C   0  0  0  0  0  0  0  0  0  0  0  0
   -0.0782   -1.1295    3.3508 C   0  0  0  0  0  0  0  0  0  0  0  0
    1.6542    1.9309    0.4149 H   0  0  0  0  0  0  0  0  0  0  0  0
    1.8384    1.5953   -1.3358 H   0  0  0  0  0  0  0  0  0  0  0  0
    3.2925    1.7553   -0.2905 H   0  0  0  0  0  0  0  0  0  0  0  0
    3.6739    0.4841   -2.1841 H   0  0  0  0  0  0  0  0  0  0  0  0
    4.8327   -1.2147   -3.5120 H   0  0  0  0  0  0  0  0  0  0  0  0
    5.0879   -3.6277   -3.9833 H   0  0  0  0  0  0  0  0  0  0  0  0
    4.5216   -4.8100   -2.9200 H   0  0  0  0  0  0  0  0  0  0  0  0
    3.2868   -4.2727   -0.8772 H   0  0  0  0  0  0  0  0  0  0  0  0
    1.3759   -0.9993    1.2963 H   0  0  0  0  0  0  0  0  0  0  0  0
    0.6926   -4.3887    2.7199 H   0  0  0  0  0  0  0  0  0  0  0  0
   -0.7290   -4.6658    4.7484 H   0  0  0  0  0  0  0  0  0  0  0  0
   -2.5698   -0.0868    5.1781 H   0  0  0  0  0  0  0  0  0  0  0  0
   -1.1816    0.8825    4.6121 H   0  0  0  0  0  0  0  0  0  0  0  0
   -1.1331    0.0582    6.1945 H   0  0  0  0  0  0  0  0  0  0  0  0
    0.1068   -0.1266    2.9537 H   0  0  0  0  0  0  0  0  0  0  0  0
  1  2  1  0
  1 21  1  0
  1 22  1  0
  1 23  1  0
  2  3  1  0
  3  4  2  0
  3  9  1  0
  4  5  1  0
  4 24  1  0
  5  6  2  0
  5 25  1  0
  6  7  1  0
  6  8  1  0
  7 26  1  0
  7 27  1  0
  8  9  2  0
  8 28  1  0
  9 10  1  0
 10 11  2  0
 10 12  1  0
 12 13  1  0
 12 29  1  0
 13 14  2  0
 13 20  1  0
 14 15  1  0
 14 30  1  0
 15 16  2  0
 15 31  1  0
 16 17  1  0
 16 18  1  0
 18 19  1  0
 18 20  2  0
 19 32  1  0
 19 33  1  0
 19 34  1  0
 20 35  1  0
M  END

