
     RDKit          3D

 29 30  0  0  0  0  0  0  0  0999 V2000
    1.8341   -0.7132    0.7339 O   0  0  0  0  0  0  0  0  0  0  0  0
    2.5812    0.0333   -0.2683 S   0  0  1  0  0  0  0  0  0  0  0  0
    3.7462   -0.5172   -0.9453 O   0  0  0  0  0  0  0  0  0  0  0  0
    1.1771    0.5400   -1.8074 Cl  0  0  0  0  0  0  0  0  0  0  0  0
    2.9680    1.6511    0.3647 C   0  0  0  0  0  0  0  0  0  0  0  0
    2.2104    2.1718    1.4123 C   0  0  0  0  0  0  0  0  0  0  0  0
    2.5152    3.4414    1.9008 C   0  0  0  0  0  0  0  0  0  0  0  0
    3.5681    4.1924    1.3460 C   0  0  0  0  0  0  0  0  0  0  0  0
    3.9168    5.4186    1.7608 O   0  0  0  0  0  0  0  0  0  0  0  0
    3.2354    6.0361    2.8423 C   0  0  0  0  0  0  0  0  0  0  0  0
    3.8449    7.3895    3.1264 C   0  0  0  0  0  0  0  0  0  0  0  0
    3.1328    8.3050    3.9167 C   0  0  0  0  0  0  0  0  0  0  0  0
    3.6901    9.5462    4.2316 C   0  0  0  0  0  0  0  0  0  0  0  0
    4.9581    9.8957    3.7587 C   0  0  0  0  0  0  0  0  0  0  0  0
    5.6460    8.9766    2.9709 C   0  0  0  0  0  0  0  0  0  0  0  0
    6.8609    9.2984    2.5059 F   0  0  0  0  0  0  0  0  0  0  0  0
    5.1151    7.7291    2.6479 C   0  0  0  0  0  0  0  0  0  0  0  0
    4.3207    3.6331    0.2818 C   0  0  0  0  0  0  0  0  0  0  0  0
    5.7524    4.6209   -0.4744 Br  0  0  0  0  0  0  0  0  0  0  0  0
    4.0232    2.3686   -0.2103 C   0  0  0  0  0  0  0  0  0  0  0  0
    1.3970    1.5878    1.8454 H   0  0  0  0  0  0  0  0  0  0  0  0
    1.9258    3.8464    2.7227 H   0  0  0  0  0  0  0  0  0  0  0  0
    3.3086    5.3926    3.7401 H   0  0  0  0  0  0  0  0  0  0  0  0
    2.1627    6.1474    2.6008 H   0  0  0  0  0  0  0  0  0  0  0  0
    2.1360    8.0489    4.2866 H   0  0  0  0  0  0  0  0  0  0  0  0
    3.1296   10.2543    4.8467 H   0  0  0  0  0  0  0  0  0  0  0  0
    5.4150   10.8609    3.9844 H   0  0  0  0  0  0  0  0  0  0  0  0
    5.6873    7.0437    2.0228 H   0  0  0  0  0  0  0  0  0  0  0  0
    4.6070    1.9371   -1.0240 H   0  0  0  0  0  0  0  0  0  0  0  0
  1  2  2  0
  2  3  2  0
  2  4  1  6
  2  5  1  0
  5  6  2  0
  5 20  1  0
  6  7  1  0
  6 21  1  0
  7  8  2  0
  7 22  1  0
  8  9  1  0
  8 18  1  0
  9 10  1  0
 10 11  1  0
 10 23  1  0
 10 24  1  0
 11 12  2  0
 11 17  1  0
 12 13  1  0
 12 25  1  0
 13 14  2  0
 13 26  1  0
 14 15  1  0
 14 27  1  0
 15 16  1  0
 15 17  2  0
 17 28  1  0
 18 19  1  0
 18 20  2  0
 20 29  1  0
M  END

