
     RDKit          3D

 70 73  0  0  0  0  0  0  0  0999 V2000
    4.2216    0.6725   -1.2881 C   0  0  0  0  0  0  0  0  0  0  0  0
    3.1376    0.0849   -0.3726 C   0  0  1  0  0  0  0  0  0  0  0  0
    2.2203   -0.6794   -1.1399 O   0  0  0  0  0  0  0  0  0  0  0  0
    3.6979   -0.7359    0.7915 C   0  0  0  0  0  0  0  0  0  0  0  0
    4.9400   -0.4699    1.3879 C   0  0  0  0  0  0  0  0  0  0  0  0
    5.4099   -1.2206    2.4619 C   0  0  0  0  0  0  0  0  0  0  0  0
    4.6535   -2.2851    3.0082 C   0  0  0  0  0  0  0  0  0  0  0  0
    5.1485   -3.0612    4.0631 N   0  0  0  0  0  0  0  0  0  0  0  0
    4.4244   -4.2647    4.4596 C   0  0  0  0  0  0  0  0  0  0  0  0
    5.3592   -5.2558    5.1548 C   0  0  0  0  0  0  0  0  0  0  0  0
    6.1065   -4.6341    6.2437 N   0  0  0  0  0  0  0  0  0  0  0  0
    5.5632   -4.8475    7.8133 S   0  0  1  0  0  0  0  0  0  0  0  0
    6.3233   -3.9163    8.6549 O   0  0  0  0  0  0  0  0  0  0  0  0
    4.0932   -4.8393    7.8398 O   0  0  0  0  0  0  0  0  0  0  0  0
    6.0797   -6.5239    8.2145 C   0  0  0  0  0  0  0  0  0  0  0  0
    5.0666   -7.4723    8.4003 C   0  0  0  0  0  0  0  0  0  0  0  0
    5.3873   -8.7935    8.7084 C   0  0  0  0  0  0  0  0  0  0  0  0
    6.7310   -9.1564    8.8372 C   0  0  0  0  0  0  0  0  0  0  0  0
    7.7405   -8.2081    8.6751 C   0  0  0  0  0  0  0  0  0  0  0  0
    7.4416   -6.8689    8.3635 C   0  0  0  0  0  0  0  0  0  0  0  0
    8.7339   -5.6568    8.2037 S   0  0  0  0  0  0  0  0  0  0  0  0
    6.8291   -3.4256    5.8467 C   0  0  0  0  0  0  0  0  0  0  0  0
    5.9253   -2.4103    5.1324 C   0  0  2  0  0  0  0  0  0  0  0  0
    6.6077   -1.6865    4.6690 H   0  0  0  0  0  0  0  0  0  0  0  0
    5.0245   -1.6203    6.1190 C   0  0  0  0  0  0  0  0  0  0  0  0
    5.8162   -0.7097    6.9358 N   0  0  0  0  0  0  0  0  0  0  0  0
    6.0118    0.6256    6.3749 C   0  0  0  0  0  0  0  0  0  0  0  0
    4.8204    1.5524    6.6436 C   0  0  0  0  0  0  0  0  0  0  0  0
    4.5500    1.5959    8.0770 N   0  0  0  0  0  0  0  0  0  0  0  0
    4.2980    0.2823    8.6480 C   0  0  2  0  0  0  0  0  0  0  0  0
    4.0489    0.4198   10.1432 C   0  0  1  0  0  0  0  0  0  0  0  0
    3.0550    1.3045   10.3839 F   0  0  0  0  0  0  0  0  0  0  0  0
    3.6724   -0.7563   10.6742 F   0  0  0  0  0  0  0  0  0  0  0  0
    5.1262    0.8422   10.8190 F   0  0  0  0  0  0  0  0  0  0  0  0
    5.5012   -0.6381    8.3565 C   0  0  0  0  0  0  0  0  0  0  0  0
    3.3950   -2.5359    2.4145 C   0  0  0  0  0  0  0  0  0  0  0  0
    2.9375   -1.7800    1.3363 C   0  0  0  0  0  0  0  0  0  0  0  0
    2.2704    1.2420    0.1808 C   0  0  1  0  0  0  0  0  0  0  0  0
    1.7345    1.9755   -0.8064 F   0  0  0  0  0  0  0  0  0  0  0  0
    1.2665    0.7978    0.9449 F   0  0  0  0  0  0  0  0  0  0  0  0
    3.0205    2.0708    0.9332 F   0  0  0  0  0  0  0  0  0  0  0  0
    4.8684   -0.1362   -1.6608 H   0  0  0  0  0  0  0  0  0  0  0  0
    4.8523    1.4096   -0.7727 H   0  0  0  0  0  0  0  0  0  0  0  0
    3.7385    1.1648   -2.1428 H   0  0  0  0  0  0  0  0  0  0  0  0
    2.6814   -1.4770   -1.4319 H   0  0  0  0  0  0  0  0  0  0  0  0
    5.5722    0.3355    1.0102 H   0  0  0  0  0  0  0  0  0  0  0  0
    6.3978   -0.9884    2.8600 H   0  0  0  0  0  0  0  0  0  0  0  0
    4.0290   -4.7532    3.5577 H   0  0  0  0  0  0  0  0  0  0  0  0
    3.5647   -4.0471    5.1238 H   0  0  0  0  0  0  0  0  0  0  0  0
    6.0925   -5.6453    4.4266 H   0  0  0  0  0  0  0  0  0  0  0  0
    4.7812   -6.1096    5.5349 H   0  0  0  0  0  0  0  0  0  0  0  0
    4.0296   -7.1489    8.2995 H   0  0  0  0  0  0  0  0  0  0  0  0
    4.5946   -9.5310    8.8498 H   0  0  0  0  0  0  0  0  0  0  0  0
    7.0017  -10.1873    9.0788 H   0  0  0  0  0  0  0  0  0  0  0  0
    8.7835   -8.5063    8.8049 H   0  0  0  0  0  0  0  0  0  0  0  0
    9.7253   -6.5707    8.0844 H   0  0  0  0  0  0  0  0  0  0  0  0
    7.6465   -3.7377    5.1742 H   0  0  0  0  0  0  0  0  0  0  0  0
    7.2708   -2.9518    6.7313 H   0  0  0  0  0  0  0  0  0  0  0  0
    4.4915   -2.3250    6.7754 H   0  0  0  0  0  0  0  0  0  0  0  0
    4.2434   -1.1035    5.5273 H   0  0  0  0  0  0  0  0  0  0  0  0
    6.1939    0.5516    5.2911 H   0  0  0  0  0  0  0  0  0  0  0  0
    6.9128    1.0698    6.8334 H   0  0  0  0  0  0  0  0  0  0  0  0
    3.9435    1.2013    6.0537 H   0  0  0  0  0  0  0  0  0  0  0  0
    5.0545    2.5712    6.2941 H   0  0  0  0  0  0  0  0  0  0  0  0
    3.7755    2.2243    8.2809 H   0  0  0  0  0  0  0  0  0  0  0  0
    3.3767   -0.2002    8.2476 H   0  0  0  0  0  0  0  0  0  0  0  0
    5.3298   -1.6483    8.7506 H   0  0  0  0  0  0  0  0  0  0  0  0
    6.3732   -0.2183    8.8856 H   0  0  0  0  0  0  0  0  0  0  0  0
    2.7428   -3.3142    2.8093 H   0  0  0  0  0  0  0  0  0  0  0  0
    1.9538   -1.9943    0.9152 H   0  0  0  0  0  0  0  0  0  0  0  0
  1  2  1  0
  1 42  1  0
  1 43  1  0
  1 44  1  0
  2  3  1  6
  2  4  1  0
  2 38  1  0
  3 45  1  0
  4  5  2  0
  4 37  1  0
  5  6  1  0
  5 46  1  0
  6  7  2  0
  6 47  1  0
  7  8  1  0
  7 36  1  0
  8  9  1  0
  8 23  1  0
  9 10  1  0
  9 48  1  0
  9 49  1  0
 10 11  1  0
 10 50  1  0
 10 51  1  0
 11 12  1  0
 11 22  1  0
 12 13  2  0
 12 14  2  0
 12 15  1  1
 15 16  2  0
 15 20  1  0
 16 17  1  0
 16 52  1  0
 17 18  2  0
 17 53  1  0
 18 19  1  0
 18 54  1  0
 19 20  2  0
 19 55  1  0
 20 21  1  0
 21 56  1  0
 22 23  1  0
 22 57  1  0
 22 58  1  0
 23 24  1  6
 23 25  1  0
 25 26  1  0
 25 59  1  0
 25 60  1  0
 26 27  1  0
 26 35  1  0
 27 28  1  0
 27 61  1  0
 27 62  1  0
 28 29  1  0
 28 63  1  0
 28 64  1  0
 29 30  1  0
 29 65  1  0
 30 31  1  0
 30 35  1  0
 30 66  1  6
 31 32  1  6
 31 33  1  0
 31 34  1  0
 35 67  1  0
 35 68  1  0
 36 37  2  0
 36 69  1  0
 37 70  1  0
 38 39  1  6
 38 40  1  0
 38 41  1  0
M  END

