
     RDKit          3D

 39 40  0  0  0  0  0  0  0  0999 V2000
    1.0451   -0.0369    0.7286 C   0  0  0  0  0  0  0  0  0  0  0  0
    2.5471    0.1127    0.5840 C   0  0  0  0  0  0  0  0  0  0  0  0
    3.1322   -1.1776    0.6973 O   0  0  0  0  0  0  0  0  0  0  0  0
    4.4756   -1.3283    0.6013 C   0  0  0  0  0  0  0  0  0  0  0  0
    5.3746   -0.2707    0.3955 C   0  0  0  0  0  0  0  0  0  0  0  0
    6.7432   -0.5266    0.3082 C   0  0  0  0  0  0  0  0  0  0  0  0
    7.2395   -1.8281    0.4377 C   0  0  0  0  0  0  0  0  0  0  0  0
    8.7231   -2.0218    0.3311 C   0  0  0  0  0  0  0  0  0  0  0  0
    9.4536   -1.1696   -0.1610 O   0  0  0  0  0  0  0  0  0  0  0  0
    9.2201   -3.2077    0.8099 N   0  0  0  0  0  0  0  0  0  0  0  0
   10.6474   -3.4898    0.7888 C   0  0  0  0  0  0  0  0  0  0  0  0
   11.3981   -2.9867    2.0085 C   0  0  0  0  0  0  0  0  0  0  0  0
   11.8307   -1.6551    2.1021 C   0  0  0  0  0  0  0  0  0  0  0  0
   12.5034   -1.2249    3.2425 C   0  0  0  0  0  0  0  0  0  0  0  0
   12.9140    0.0504    3.3172 F   0  0  0  0  0  0  0  0  0  0  0  0
   12.7653   -2.0813    4.3112 C   0  0  0  0  0  0  0  0  0  0  0  0
   12.3345   -3.4071    4.2316 C   0  0  0  0  0  0  0  0  0  0  0  0
   11.6582   -3.8339    3.0918 C   0  0  0  0  0  0  0  0  0  0  0  0
   11.2388   -5.1155    3.0302 F   0  0  0  0  0  0  0  0  0  0  0  0
    6.3220   -2.8786    0.6291 C   0  0  0  0  0  0  0  0  0  0  0  0
    4.9477   -2.6594    0.7147 C   0  0  0  0  0  0  0  0  0  0  0  0
    3.9648   -3.7832    0.9094 C   0  0  0  0  0  0  0  0  0  0  0  0
    0.5561    0.9460    0.6462 H   0  0  0  0  0  0  0  0  0  0  0  0
    0.7891   -0.4722    1.7067 H   0  0  0  0  0  0  0  0  0  0  0  0
    0.6414   -0.6936   -0.0571 H   0  0  0  0  0  0  0  0  0  0  0  0
    2.9530    0.7790    1.3679 H   0  0  0  0  0  0  0  0  0  0  0  0
    2.8056    0.5573   -0.3950 H   0  0  0  0  0  0  0  0  0  0  0  0
    5.0166    0.7542    0.2997 H   0  0  0  0  0  0  0  0  0  0  0  0
    7.4530    0.2847    0.1369 H   0  0  0  0  0  0  0  0  0  0  0  0
    8.6332   -3.7786    1.4051 H   0  0  0  0  0  0  0  0  0  0  0  0
   11.0541   -3.0068   -0.1093 H   0  0  0  0  0  0  0  0  0  0  0  0
   10.7849   -4.5758    0.6924 H   0  0  0  0  0  0  0  0  0  0  0  0
   11.6248   -0.9573    1.2883 H   0  0  0  0  0  0  0  0  0  0  0  0
   13.2985   -1.7055    5.1862 H   0  0  0  0  0  0  0  0  0  0  0  0
   12.5153   -4.1152    5.0425 H   0  0  0  0  0  0  0  0  0  0  0  0
    6.6751   -3.9122    0.6838 H   0  0  0  0  0  0  0  0  0  0  0  0
    4.4777   -4.7540    0.9699 H   0  0  0  0  0  0  0  0  0  0  0  0
    3.2368   -3.8247    0.0827 H   0  0  0  0  0  0  0  0  0  0  0  0
    3.3757   -3.6423    1.8307 H   0  0  0  0  0  0  0  0  0  0  0  0
  1  2  1  0
  1 23  1  0
  1 24  1  0
  1 25  1  0
  2  3  1  0
  2 26  1  0
  2 27  1  0
  3  4  1  0
  4  5  2  0
  4 21  1  0
  5  6  1  0
  5 28  1  0
  6  7  2  0
  6 29  1  0
  7  8  1  0
  7 20  1  0
  8  9  2  0
  8 10  1  0
 10 11  1  0
 10 30  1  0
 11 12  1  0
 11 31  1  0
 11 32  1  0
 12 13  2  0
 12 18  1  0
 13 14  1  0
 13 33  1  0
 14 15  1  0
 14 16  2  0
 16 17  1  0
 16 34  1  0
 17 18  2  0
 17 35  1  0
 18 19  1  0
 20 21  2  0
 20 36  1  0
 21 22  1  0
 22 37  1  0
 22 38  1  0
 22 39  1  0
M  END

