
     RDKit          3D

 38 39  0  0  0  0  0  0  0  0999 V2000
    1.5440    0.5974    3.9002 C   0  0  0  0  0  0  0  0  0  0  0  0
    2.8553    0.5246    3.4131 O   0  0  0  0  0  0  0  0  0  0  0  0
    3.0637    1.2529    2.2328 C   0  0  0  0  0  0  0  0  0  0  0  0
    4.4897    1.1072    1.7511 C   0  0  0  0  0  0  0  0  0  0  0  0
    5.3819    0.2148    2.3576 C   0  0  0  0  0  0  0  0  0  0  0  0
    6.6911    0.0863    1.8858 C   0  0  0  0  0  0  0  0  0  0  0  0
    7.1441    0.8409    0.7942 C   0  0  0  0  0  0  0  0  0  0  0  0
    8.5739    0.7304    0.3038 C   0  0  0  0  0  0  0  0  0  0  0  0
    9.0827   -0.6299    0.3560 N   0  0  0  0  0  0  0  0  0  0  0  0
   10.4582   -0.7739   -0.0950 C   0  0  0  0  0  0  0  0  0  0  0  0
   10.9439   -2.2062   -0.0182 C   0  0  0  0  0  0  0  0  0  0  0  0
   11.6685   -2.7850   -1.0670 C   0  0  0  0  0  0  0  0  0  0  0  0
   12.1459   -4.0968   -0.9849 C   0  0  0  0  0  0  0  0  0  0  0  0
   11.8958   -4.8631    0.1603 C   0  0  0  0  0  0  0  0  0  0  0  0
   12.3290   -6.1442    0.2989 O   0  0  0  0  0  0  0  0  0  0  0  0
   11.1637   -4.2998    1.2172 C   0  0  0  0  0  0  0  0  0  0  0  0
   10.6986   -2.9907    1.1229 C   0  0  0  0  0  0  0  0  0  0  0  0
    6.2436    1.7284    0.1853 C   0  0  0  0  0  0  0  0  0  0  0  0
    4.9381    1.8644    0.6594 C   0  0  0  0  0  0  0  0  0  0  0  0
    1.4916   -0.0049    4.8188 H   0  0  0  0  0  0  0  0  0  0  0  0
    0.8070    0.1977    3.1734 H   0  0  0  0  0  0  0  0  0  0  0  0
    1.2477    1.6385    4.1440 H   0  0  0  0  0  0  0  0  0  0  0  0
    2.8337    2.3293    2.3921 H   0  0  0  0  0  0  0  0  0  0  0  0
    2.3668    0.9068    1.4370 H   0  0  0  0  0  0  0  0  0  0  0  0
    5.0389   -0.3758    3.2080 H   0  0  0  0  0  0  0  0  0  0  0  0
    7.3791   -0.6153    2.3623 H   0  0  0  0  0  0  0  0  0  0  0  0
    9.2288    1.3532    0.9442 H   0  0  0  0  0  0  0  0  0  0  0  0
    8.6414    1.1830   -0.7118 H   0  0  0  0  0  0  0  0  0  0  0  0
    8.4727   -1.2554   -0.1708 H   0  0  0  0  0  0  0  0  0  0  0  0
   11.0857   -0.1325    0.5540 H   0  0  0  0  0  0  0  0  0  0  0  0
   10.6201   -0.3941   -1.1295 H   0  0  0  0  0  0  0  0  0  0  0  0
   11.8677   -2.2031   -1.9718 H   0  0  0  0  0  0  0  0  0  0  0  0
   12.7093   -4.5292   -1.8184 H   0  0  0  0  0  0  0  0  0  0  0  0
   12.8180   -6.4049   -0.4924 H   0  0  0  0  0  0  0  0  0  0  0  0
   10.9718   -4.9080    2.1038 H   0  0  0  0  0  0  0  0  0  0  0  0
   10.1222   -2.5592    1.9443 H   0  0  0  0  0  0  0  0  0  0  0  0
    6.5698    2.3232   -0.6732 H   0  0  0  0  0  0  0  0  0  0  0  0
    4.2574    2.5666    0.1673 H   0  0  0  0  0  0  0  0  0  0  0  0
  1  2  1  0
  1 20  1  0
  1 21  1  0
  1 22  1  0
  2  3  1  0
  3  4  1  0
  3 23  1  0
  3 24  1  0
  4  5  2  0
  4 19  1  0
  5  6  1  0
  5 25  1  0
  6  7  2  0
  6 26  1  0
  7  8  1  0
  7 18  1  0
  8  9  1  0
  8 27  1  0
  8 28  1  0
  9 10  1  0
  9 29  1  0
 10 11  1  0
 10 30  1  0
 10 31  1  0
 11 12  2  0
 11 17  1  0
 12 13  1  0
 12 32  1  0
 13 14  2  0
 13 33  1  0
 14 15  1  0
 14 16  1  0
 15 34  1  0
 16 17  2  0
 16 35  1  0
 17 36  1  0
 18 19  2  0
 18 37  1  0
 19 38  1  0
M  END

