
     RDKit          3D

 52 56  0  0  0  0  0  0  0  0999 V2000
    0.6773   -0.9370   -0.7722 C   0  0  0  0  0  0  0  0  0  0  0  0
    2.0259   -0.3174   -0.5461 C   0  0  0  0  0  0  0  0  0  0  0  0
    2.2890    0.9744   -0.8344 C   0  0  0  0  0  0  0  0  0  0  0  0
    3.5495    1.6360   -0.5225 C   0  0  0  0  0  0  0  0  0  0  0  0
    3.7835    2.9881   -0.8214 C   0  0  0  0  0  0  0  0  0  0  0  0
    4.9630    3.5960   -0.4075 C   0  0  0  0  0  0  0  0  0  0  0  0
    5.1733    4.8900   -0.6985 F   0  0  0  0  0  0  0  0  0  0  0  0
    5.9270    2.8929    0.3124 C   0  0  0  0  0  0  0  0  0  0  0  0
    5.7078    1.5436    0.6007 C   0  0  0  0  0  0  0  0  0  0  0  0
    4.5329    0.9059    0.1801 C   0  0  0  0  0  0  0  0  0  0  0  0
    4.3323   -0.4637    0.4320 N   0  0  0  0  0  0  0  0  0  0  0  0
    3.1375   -1.2308    0.0026 C   0  0  2  0  0  0  0  0  0  0  0  0
    3.5697   -2.1675   -1.2021 C   0  0  0  0  0  0  0  0  0  0  0  0
    2.8091   -2.8937   -1.7861 O   0  0  0  0  0  0  0  0  0  0  0  0
    4.8539   -2.0528   -1.5224 O   0  0  0  0  0  0  0  0  0  0  0  0
    2.6783   -2.1177    1.1522 C   0  0  0  0  0  0  0  0  0  0  0  0
    2.5481   -3.4868    1.1786 C   0  0  0  0  0  0  0  0  0  0  0  0
    2.1320   -3.8537    2.4964 C   0  0  0  0  0  0  0  0  0  0  0  0
    1.8072   -5.0933    3.0768 C   0  0  0  0  0  0  0  0  0  0  0  0
    1.3949   -5.1198    4.4014 C   0  0  0  0  0  0  0  0  0  0  0  0
    1.3331   -3.9316    5.1556 C   0  0  0  0  0  0  0  0  0  0  0  0
    1.6709   -2.6780    4.6290 C   0  0  0  0  0  0  0  0  0  0  0  0
    1.6657   -1.4966    5.5442 C   0  0  0  0  0  0  0  0  0  0  0  0
    2.8616   -0.8354    5.8799 C   0  0  0  0  0  0  0  0  0  0  0  0
    2.8621    0.2358    6.7765 C   0  0  0  0  0  0  0  0  0  0  0  0
    1.6659    0.6656    7.3601 C   0  0  0  0  0  0  0  0  0  0  0  0
    0.4720    0.0103    7.0458 C   0  0  0  0  0  0  0  0  0  0  0  0
    0.4728   -1.0624    6.1491 C   0  0  0  0  0  0  0  0  0  0  0  0
    2.0455   -2.6516    3.2608 C   0  0  0  0  0  0  0  0  0  0  0  0
    2.3628   -1.5939    2.4133 N   0  0  0  0  0  0  0  0  0  0  0  0
    2.2412   -0.1819    2.7450 C   0  0  0  0  0  0  0  0  0  0  0  0
   -0.0057   -0.2185   -1.2478 H   0  0  0  0  0  0  0  0  0  0  0  0
    0.2282   -1.2631    0.1815 H   0  0  0  0  0  0  0  0  0  0  0  0
    0.7611   -1.8344   -1.4027 H   0  0  0  0  0  0  0  0  0  0  0  0
    1.4967    1.5895   -1.2712 H   0  0  0  0  0  0  0  0  0  0  0  0
    3.0388    3.5746   -1.3638 H   0  0  0  0  0  0  0  0  0  0  0  0
    6.8393    3.4005    0.6305 H   0  0  0  0  0  0  0  0  0  0  0  0
    6.4654    0.9778    1.1498 H   0  0  0  0  0  0  0  0  0  0  0  0
    4.7409   -0.8022    1.2976 H   0  0  0  0  0  0  0  0  0  0  0  0
    5.2203   -1.3981   -0.8841 H   0  0  0  0  0  0  0  0  0  0  0  0
    2.7018   -4.1540    0.3361 H   0  0  0  0  0  0  0  0  0  0  0  0
    1.8735   -6.0108    2.4870 H   0  0  0  0  0  0  0  0  0  0  0  0
    1.1308   -6.0679    4.8763 H   0  0  0  0  0  0  0  0  0  0  0  0
    1.0439   -3.9838    6.2082 H   0  0  0  0  0  0  0  0  0  0  0  0
    3.8028   -1.1805    5.4438 H   0  0  0  0  0  0  0  0  0  0  0  0
    3.8031    0.7320    7.0286 H   0  0  0  0  0  0  0  0  0  0  0  0
    1.6660    1.5037    8.0616 H   0  0  0  0  0  0  0  0  0  0  0  0
   -0.4676    0.3359    7.5000 H   0  0  0  0  0  0  0  0  0  0  0  0
   -0.4637   -1.5694    5.9031 H   0  0  0  0  0  0  0  0  0  0  0  0
    1.3718   -0.0269    3.3958 H   0  0  0  0  0  0  0  0  0  0  0  0
    2.0915    0.4040    1.8323 H   0  0  0  0  0  0  0  0  0  0  0  0
    3.1276    0.2050    3.2730 H   0  0  0  0  0  0  0  0  0  0  0  0
  1  2  1  0
  1 32  1  0
  1 33  1  0
  1 34  1  0
  2  3  2  0
  2 12  1  0
  3  4  1  0
  3 35  1  0
  4  5  1  0
  4 10  2  0
  5  6  2  0
  5 36  1  0
  6  7  1  0
  6  8  1  0
  8  9  2  0
  8 37  1  0
  9 10  1  0
  9 38  1  0
 10 11  1  0
 11 12  1  0
 11 39  1  0
 12 13  1  6
 12 16  1  0
 13 14  2  0
 13 15  1  0
 15 40  1  0
 16 17  2  0
 16 30  1  0
 17 18  1  0
 17 41  1  0
 18 19  2  0
 18 29  1  0
 19 20  1  0
 19 42  1  0
 20 21  2  0
 20 43  1  0
 21 22  1  0
 21 44  1  0
 22 23  1  0
 22 29  2  0
 23 24  2  0
 23 28  1  0
 24 25  1  0
 24 45  1  0
 25 26  2  0
 25 46  1  0
 26 27  1  0
 26 47  1  0
 27 28  2  0
 27 48  1  0
 28 49  1  0
 29 30  1  0
 30 31  1  0
 31 50  1  0
 31 51  1  0
 31 52  1  0
M  END

