
     RDKit          3D

 86 90  0  0  0  0  0  0  0  0999 V2000
    4.5297    1.4659    2.1576 C   0  0  0  0  0  0  0  0  0  0  0  0
    5.9729    1.6895    2.4688 C   0  0  0  0  0  0  0  0  0  0  0  0
    7.0408    0.8924    2.2057 C   0  0  0  0  0  0  0  0  0  0  0  0
    7.0733   -0.4619    1.5561 C   0  0  0  0  0  0  0  0  0  0  0  0
    7.3745   -1.6070    2.5521 C   0  0  0  0  0  0  0  0  0  0  0  0
    7.5615   -2.9284    1.8117 C   0  0  0  0  0  0  0  0  0  0  0  0
    6.6789   -3.4384    1.1696 O   0  0  0  0  0  0  0  0  0  0  0  0
    8.7801   -3.4862    1.8826 O   0  0  0  0  0  0  0  0  0  0  0  0
    8.2736    1.5710    2.6711 C   0  0  0  0  0  0  0  0  0  0  0  0
    9.5556    1.1079    2.5939 C   0  0  0  0  0  0  0  0  0  0  0  0
   10.7296    1.9744    2.8160 C   0  0  0  0  0  0  0  0  0  0  0  0
   10.7995    3.1163    2.0635 N   0  0  0  0  0  0  0  0  0  0  0  0
   10.0903    3.3858    1.3946 H   0  0  0  0  0  0  0  0  0  0  0  0
   11.8869    3.9060    2.3852 C   0  0  0  0  0  0  0  0  0  0  0  0
   12.5747    3.2122    3.3883 C   0  0  0  0  0  0  0  0  0  0  0  0
   13.8166    3.6762    4.0899 C   0  0  0  0  0  0  0  0  0  0  0  0
   11.8583    1.9902    3.6502 C   0  0  0  0  0  0  0  0  0  0  0  0
   12.2836    1.0023    4.7075 C   0  0  0  0  0  0  0  0  0  0  0  0
   11.4758   -0.3002    4.8115 C   0  0  0  0  0  0  0  0  0  0  0  0
   11.6640   -1.2999    3.6946 C   0  0  0  0  0  0  0  0  0  0  0  0
   10.7769   -1.9728    3.2057 O   0  0  0  0  0  0  0  0  0  0  0  0
   12.9377   -1.4323    3.3089 O   0  0  0  0  0  0  0  0  0  0  0  0
   11.8789    5.2512    1.7851 C   0  0  0  0  0  0  0  0  0  0  0  0
   11.5049    5.3679    0.4651 C   0  0  0  0  0  0  0  0  0  0  0  0
   10.3888    6.1455    0.0793 N   0  0  0  0  0  0  0  0  0  0  0  0
    9.7611    6.3597    0.8479 H   0  0  0  0  0  0  0  0  0  0  0  0
    9.7848    5.4562   -1.0015 C   0  0  0  0  0  0  0  0  0  0  0  0
   10.7421    4.6769   -1.6362 C   0  0  0  0  0  0  0  0  0  0  0  0
   10.4923    3.8416   -2.8521 C   0  0  0  0  0  0  0  0  0  0  0  0
   11.9097    4.6278   -0.7535 C   0  0  0  0  0  0  0  0  0  0  0  0
   13.1598    4.1172   -1.0413 C   0  0  0  0  0  0  0  0  0  0  0  0
   13.6236    3.7837   -2.4386 C   0  0  0  0  0  0  0  0  0  0  0  0
   14.4419    3.8522    0.1383 S   0  0  0  0  0  0  0  0  0  0  0  0
    8.3844    5.1360   -0.9722 C   0  0  0  0  0  0  0  0  0  0  0  0
    7.4971    5.4770    0.0365 C   0  0  0  0  0  0  0  0  0  0  0  0
    6.7445    4.4909    0.6764 N   0  0  0  0  0  0  0  0  0  0  0  0
    7.0436    3.5231    0.6370 H   0  0  0  0  0  0  0  0  0  0  0  0
    6.2045    4.9997    1.8505 C   0  0  0  0  0  0  0  0  0  0  0  0
    6.3149    6.4591    1.7436 C   0  0  0  0  0  0  0  0  0  0  0  0
    5.6283    7.4021    2.6815 C   0  0  0  0  0  0  0  0  0  0  0  0
    7.1849    6.7328    0.7079 C   0  0  0  0  0  0  0  0  0  0  0  0
    7.6449    8.0749    0.1867 C   0  0  2  0  0  0  0  0  0  0  0  0
    8.3381    7.8904   -0.6451 H   0  0  0  0  0  0  0  0  0  0  0  0
    8.3445    8.9645    1.2196 C   0  0  0  0  0  0  0  0  0  0  0  0
    6.1588    8.9129   -0.5712 S   0  0  0  0  0  0  0  0  0  0  0  0
    5.9045    4.2929    2.9777 C   0  0  0  0  0  0  0  0  0  0  0  0
    6.4152    2.8980    3.3182 C   0  0  1  0  0  0  0  0  0  0  0  0
    6.0890    2.6930    4.7430 N   0  0  0  0  0  0  0  0  0  0  0  0
    7.8733    2.8190    3.1377 N   0  0  0  0  0  0  0  0  0  0  0  0
    4.3610    0.5313    1.6052 H   0  0  0  0  0  0  0  0  0  0  0  0
    4.1229    2.3016    1.5629 H   0  0  0  0  0  0  0  0  0  0  0  0
    3.9291    1.4241    3.0836 H   0  0  0  0  0  0  0  0  0  0  0  0
    7.8483   -0.4631    0.7703 H   0  0  0  0  0  0  0  0  0  0  0  0
    6.1219   -0.6853    1.0529 H   0  0  0  0  0  0  0  0  0  0  0  0
    6.5161   -1.7288    3.2319 H   0  0  0  0  0  0  0  0  0  0  0  0
    8.2542   -1.3698    3.1653 H   0  0  0  0  0  0  0  0  0  0  0  0
    9.4062   -2.9461    2.4014 H   0  0  0  0  0  0  0  0  0  0  0  0
    9.7066    0.0854    2.2479 H   0  0  0  0  0  0  0  0  0  0  0  0
   14.2008    4.6020    3.6354 H   0  0  0  0  0  0  0  0  0  0  0  0
   14.6228    2.9229    4.0485 H   0  0  0  0  0  0  0  0  0  0  0  0
   13.6347    3.8828    5.1599 H   0  0  0  0  0  0  0  0  0  0  0  0
   12.2402    1.4917    5.6980 H   0  0  0  0  0  0  0  0  0  0  0  0
   13.3464    0.7425    4.5635 H   0  0  0  0  0  0  0  0  0  0  0  0
   10.3984   -0.1105    4.9002 H   0  0  0  0  0  0  0  0  0  0  0  0
   11.7867   -0.8316    5.7295 H   0  0  0  0  0  0  0  0  0  0  0  0
   12.9636   -2.1074    2.6080 H   0  0  0  0  0  0  0  0  0  0  0  0
   11.5858    6.0726    2.4551 H   0  0  0  0  0  0  0  0  0  0  0  0
    9.4129    3.7301   -3.0404 H   0  0  0  0  0  0  0  0  0  0  0  0
   10.9293    2.8356   -2.7533 H   0  0  0  0  0  0  0  0  0  0  0  0
   10.9147    4.2889   -3.7685 H   0  0  0  0  0  0  0  0  0  0  0  0
   13.0764    4.3509   -3.2018 H   0  0  0  0  0  0  0  0  0  0  0  0
   13.5264    2.7068   -2.6645 H   0  0  0  0  0  0  0  0  0  0  0  0
   14.6942    4.0251   -2.5453 H   0  0  0  0  0  0  0  0  0  0  0  0
   13.6852    3.5408    1.2211 H   0  0  0  0  0  0  0  0  0  0  0  0
    8.1445    4.2057   -1.4976 H   0  0  0  0  0  0  0  0  0  0  0  0
    4.6132    7.0462    2.9166 H   0  0  0  0  0  0  0  0  0  0  0  0
    5.5443    8.4083    2.2505 H   0  0  0  0  0  0  0  0  0  0  0  0
    6.1711    7.4812    3.6404 H   0  0  0  0  0  0  0  0  0  0  0  0
    9.2427    8.4626    1.6159 H   0  0  0  0  0  0  0  0  0  0  0  0
    7.6880    9.2147    2.0642 H   0  0  0  0  0  0  0  0  0  0  0  0
    8.6747    9.9072    0.7568 H   0  0  0  0  0  0  0  0  0  0  0  0
    6.8226   10.0001   -1.0330 H   0  0  0  0  0  0  0  0  0  0  0  0
    5.5511    4.8697    3.8345 H   0  0  0  0  0  0  0  0  0  0  0  0
    5.0952    2.8572    4.9079 H   0  0  0  0  0  0  0  0  0  0  0  0
    6.2811    1.7262    5.0081 H   0  0  0  0  0  0  0  0  0  0  0  0
    8.4424    3.2993    3.8273 H   0  0  0  0  0  0  0  0  0  0  0  0
  1  2  1  0
  1 50  1  0
  1 51  1  0
  1 52  1  0
  2  3  2  0
  2 47  1  0
  3  4  1  0
  3  9  1  0
  4  5  1  0
  4 53  1  0
  4 54  1  0
  5  6  1  0
  5 55  1  0
  5 56  1  0
  6  7  2  0
  6  8  1  0
  8 57  1  0
  9 10  2  0
  9 49  1  0
 10 11  1  0
 10 58  1  0
 11 12  1  0
 11 17  2  0
 12 13  1  0
 12 14  1  0
 14 15  2  0
 14 23  1  0
 15 16  1  0
 15 17  1  0
 16 59  1  0
 16 60  1  0
 16 61  1  0
 17 18  1  0
 18 19  1  0
 18 62  1  0
 18 63  1  0
 19 20  1  0
 19 64  1  0
 19 65  1  0
 20 21  2  0
 20 22  1  0
 22 66  1  0
 23 24  2  0
 23 67  1  0
 24 25  1  0
 24 30  1  0
 25 26  1  0
 25 27  1  0
 27 28  2  0
 27 34  1  0
 28 29  1  0
 28 30  1  0
 29 68  1  0
 29 69  1  0
 29 70  1  0
 30 31  2  0
 31 32  1  0
 31 33  1  0
 32 71  1  0
 32 72  1  0
 32 73  1  0
 33 74  1  0
 34 35  2  0
 34 75  1  0
 35 36  1  0
 35 41  1  0
 36 37  1  0
 36 38  1  0
 38 39  1  0
 38 46  2  0
 39 40  1  0
 39 41  2  0
 40 76  1  0
 40 77  1  0
 40 78  1  0
 41 42  1  0
 42 43  1  6
 42 44  1  0
 42 45  1  0
 44 79  1  0
 44 80  1  0
 44 81  1  0
 45 82  1  0
 46 47  1  0
 46 83  1  0
 47 48  1  1
 47 49  1  0
 48 84  1  0
 48 85  1  0
 49 86  1  0
M  END

