
     RDKit          3D

 45 47  0  0  0  0  0  0  0  0999 V2000
    1.0963   -0.6506   -2.8057 C   0  0  0  0  0  0  0  0  0  0  0  0
    1.8117   -1.1781   -1.7079 O   0  0  0  0  0  0  0  0  0  0  0  0
    3.1474   -1.3680   -1.7834 C   0  0  0  0  0  0  0  0  0  0  0  0
    3.9264   -1.1045   -2.9044 C   0  0  0  0  0  0  0  0  0  0  0  0
    5.3049   -1.3455   -2.8387 C   0  0  0  0  0  0  0  0  0  0  0  0
    6.1217   -1.0614   -4.0267 N   0  0  0  0  0  0  0  0  0  0  0  0
    5.5515   -0.6234   -5.0173 O   0  0  0  0  0  0  0  0  0  0  0  0
    7.3226   -1.2773   -3.9589 O   0  0  0  0  0  0  0  0  0  0  0  0
    5.9130   -1.8404   -1.6899 C   0  0  0  0  0  0  0  0  0  0  0  0
    5.1293   -2.1067   -0.5647 C   0  0  0  0  0  0  0  0  0  0  0  0
    3.7448   -1.8780   -0.5907 C   0  0  0  0  0  0  0  0  0  0  0  0
    2.8756   -2.1168    0.4750 N   0  0  0  0  0  0  0  0  0  0  0  0
    3.1944   -2.5849    1.7237 C   0  0  0  0  0  0  0  0  0  0  0  0
    4.3137   -2.8778    2.1040 O   0  0  0  0  0  0  0  0  0  0  0  0
    1.9904   -2.7554    2.6588 C   0  0  0  0  0  0  0  0  0  0  0  0
    1.3956   -1.2026    3.4468 S   0  0  0  0  0  0  0  0  0  0  0  0
    0.2985   -0.6412    2.1926 C   0  0  0  0  0  0  0  0  0  0  0  0
    0.1654   -1.1320    0.9815 N   0  0  0  0  0  0  0  0  0  0  0  0
   -0.7952   -0.3970    0.3386 N   0  0  0  0  0  0  0  0  0  0  0  0
   -1.2241    0.5201    1.1705 C   0  0  0  0  0  0  0  0  0  0  0  0
   -2.2762    1.5374    0.8518 C   0  0  0  0  0  0  0  0  0  0  0  0
   -1.7614    2.9582    0.8077 C   0  0  0  0  0  0  0  0  0  0  0  0
   -0.5966    3.4307    0.2505 C   0  0  0  0  0  0  0  0  0  0  0  0
   -0.4507    4.8474    0.3688 C   0  0  0  0  0  0  0  0  0  0  0  0
   -1.5054    5.4370    1.0169 C   0  0  0  0  0  0  0  0  0  0  0  0
   -2.6906    4.2667    1.4878 S   0  0  0  0  0  0  0  0  0  0  0  0
   -0.5565    0.4132    2.3767 N   0  0  0  0  0  0  0  0  0  0  0  0
   -0.7049    1.2069    3.5853 C   0  0  0  0  0  0  0  0  0  0  0  0
    0.0591   -0.5485   -2.4623 H   0  0  0  0  0  0  0  0  0  0  0  0
    1.1393   -1.3260   -3.6783 H   0  0  0  0  0  0  0  0  0  0  0  0
    1.4853    0.3398   -3.1022 H   0  0  0  0  0  0  0  0  0  0  0  0
    3.5047   -0.7187   -3.8295 H   0  0  0  0  0  0  0  0  0  0  0  0
    6.9884   -2.0126   -1.6838 H   0  0  0  0  0  0  0  0  0  0  0  0
    5.5762   -2.4931    0.3477 H   0  0  0  0  0  0  0  0  0  0  0  0
    1.8860   -1.8724    0.3138 H   0  0  0  0  0  0  0  0  0  0  0  0
    2.3258   -3.3771    3.4980 H   0  0  0  0  0  0  0  0  0  0  0  0
    1.1328   -3.2252    2.1570 H   0  0  0  0  0  0  0  0  0  0  0  0
   -3.1103    1.4608    1.5697 H   0  0  0  0  0  0  0  0  0  0  0  0
   -2.6855    1.2439   -0.1280 H   0  0  0  0  0  0  0  0  0  0  0  0
    0.1340    2.7800   -0.2339 H   0  0  0  0  0  0  0  0  0  0  0  0
    0.4056    5.4053   -0.0136 H   0  0  0  0  0  0  0  0  0  0  0  0
   -1.6571    6.4915    1.2430 H   0  0  0  0  0  0  0  0  0  0  0  0
   -1.4506    1.9925    3.4179 H   0  0  0  0  0  0  0  0  0  0  0  0
    0.2494    1.6887    3.8473 H   0  0  0  0  0  0  0  0  0  0  0  0
   -1.0259    0.5716    4.4253 H   0  0  0  0  0  0  0  0  0  0  0  0
  1  2  1  0
  1 29  1  0
  1 30  1  0
  1 31  1  0
  2  3  1  0
  3  4  2  0
  3 11  1  0
  4  5  1  0
  4 32  1  0
  5  6  1  0
  5  9  2  0
  6  7  1  0
  6  8  1  0
  9 10  1  0
  9 33  1  0
 10 11  2  0
 10 34  1  0
 11 12  1  0
 12 13  1  0
 12 35  1  0
 13 14  2  0
 13 15  1  0
 15 16  1  0
 15 36  1  0
 15 37  1  0
 16 17  2  0
 17 18  1  0
 17 27  1  0
 18 19  2  0
 19 20  1  0
 20 21  1  0
 20 27  2  0
 21 22  1  0
 21 38  1  0
 21 39  1  0
 22 23  2  0
 22 26  1  0
 23 24  1  0
 23 40  1  0
 24 25  2  0
 24 41  1  0
 25 26  1  0
 25 42  1  0
 27 28  1  0
 28 43  1  0
 28 44  1  0
 28 45  1  0
M  CHG  4   7  -1   8  -1  16   1  27   1
M  END

