
     RDKit          3D

 47 49  0  0  0  0  0  0  0  0999 V2000
    3.7607   -0.0765    1.0733 C   0  0  0  0  0  0  0  0  0  0  0  0
    3.9349   -0.7141   -0.3138 C   0  0  1  0  0  0  0  0  0  0  0  0
    2.8159   -1.7201   -0.6532 C   0  0  0  0  0  0  0  0  0  0  0  0
    1.4690   -1.0567   -0.9896 C   0  0  2  0  0  0  0  0  0  0  0  0
    0.4014   -2.0948   -1.3478 C   0  0  0  0  0  0  0  0  0  0  0  0
    1.6550   -0.0186   -2.1100 C   0  0  0  0  0  0  0  0  0  0  0  0
    2.7362    1.0314   -1.7822 C   0  0  2  0  0  0  0  0  0  0  0  0
    2.9787    2.0127   -2.8374 N   0  0  0  0  0  0  0  0  0  0  0  0
    1.9387    2.9914   -3.1526 C   0  0  2  0  0  0  0  0  0  0  0  0
    2.3518    3.7735   -4.4166 C   0  0  0  0  0  0  0  0  0  0  0  0
    3.7231    4.4502   -4.3514 C   0  0  0  0  0  0  0  0  0  0  0  0
    3.8435    5.5325   -3.2872 C   0  0  0  0  0  0  0  0  0  0  0  0
    3.7879    5.0445   -1.9483 O   0  0  0  0  0  0  0  0  0  0  0  0
    2.5637    4.7964   -1.4020 C   0  0  0  0  0  0  0  0  0  0  0  0
    2.2652    5.4983   -0.2240 C   0  0  0  0  0  0  0  0  0  0  0  0
    1.0395    5.3086    0.4112 C   0  0  0  0  0  0  0  0  0  0  0  0
    0.6523    6.2733    2.0127 Br  0  0  0  0  0  0  0  0  0  0  0  0
    0.0891    4.4348   -0.1182 C   0  0  0  0  0  0  0  0  0  0  0  0
    0.4085    3.7354   -1.2843 C   0  0  0  0  0  0  0  0  0  0  0  0
    1.6379    3.8773   -1.9458 C   0  0  0  0  0  0  0  0  0  0  0  0
    4.0613    0.3346   -1.4362 C   0  0  0  0  0  0  0  0  0  0  0  0
    3.7267   -0.8487    1.8594 H   0  0  0  0  0  0  0  0  0  0  0  0
    2.8361    0.5163    1.1570 H   0  0  0  0  0  0  0  0  0  0  0  0
    4.6013    0.5978    1.3037 H   0  0  0  0  0  0  0  0  0  0  0  0
    4.8845   -1.2778   -0.2851 H   0  0  0  0  0  0  0  0  0  0  0  0
    2.6857   -2.4329    0.1800 H   0  0  0  0  0  0  0  0  0  0  0  0
    3.1308   -2.3220   -1.5264 H   0  0  0  0  0  0  0  0  0  0  0  0
    1.1184   -0.5152   -0.0909 H   0  0  0  0  0  0  0  0  0  0  0  0
    0.6938   -2.6705   -2.2429 H   0  0  0  0  0  0  0  0  0  0  0  0
   -0.5691   -1.6175   -1.5621 H   0  0  0  0  0  0  0  0  0  0  0  0
    0.2472   -2.8138   -0.5265 H   0  0  0  0  0  0  0  0  0  0  0  0
    0.6906    0.4748   -2.3203 H   0  0  0  0  0  0  0  0  0  0  0  0
    1.9465   -0.5430   -3.0420 H   0  0  0  0  0  0  0  0  0  0  0  0
    2.4038    1.5981   -0.8961 H   0  0  0  0  0  0  0  0  0  0  0  0
    3.2733    1.5376   -3.6907 H   0  0  0  0  0  0  0  0  0  0  0  0
    0.9713    2.5064   -3.4059 H   0  0  0  0  0  0  0  0  0  0  0  0
    1.5691    4.5209   -4.6328 H   0  0  0  0  0  0  0  0  0  0  0  0
    2.3428    3.0681   -5.2671 H   0  0  0  0  0  0  0  0  0  0  0  0
    3.9436    4.9170   -5.3277 H   0  0  0  0  0  0  0  0  0  0  0  0
    4.5055    3.6974   -4.1683 H   0  0  0  0  0  0  0  0  0  0  0  0
    3.0652    6.3072   -3.4277 H   0  0  0  0  0  0  0  0  0  0  0  0
    4.8238    6.0271   -3.3686 H   0  0  0  0  0  0  0  0  0  0  0  0
    3.0099    6.1924    0.1663 H   0  0  0  0  0  0  0  0  0  0  0  0
   -0.8743    4.2936    0.3732 H   0  0  0  0  0  0  0  0  0  0  0  0
   -0.3246    3.0333   -1.6917 H   0  0  0  0  0  0  0  0  0  0  0  0
    4.8076    1.1020   -1.1750 H   0  0  0  0  0  0  0  0  0  0  0  0
    4.4342   -0.1655   -2.3506 H   0  0  0  0  0  0  0  0  0  0  0  0
  1  2  1  0
  1 22  1  0
  1 23  1  0
  1 24  1  0
  2  3  1  0
  2 21  1  0
  2 25  1  1
  3  4  1  0
  3 26  1  0
  3 27  1  0
  4  5  1  0
  4  6  1  0
  4 28  1  1
  5 29  1  0
  5 30  1  0
  5 31  1  0
  6  7  1  0
  6 32  1  0
  6 33  1  0
  7  8  1  0
  7 21  1  0
  7 34  1  1
  8  9  1  0
  8 35  1  0
  9 10  1  0
  9 20  1  0
  9 36  1  6
 10 11  1  0
 10 37  1  0
 10 38  1  0
 11 12  1  0
 11 39  1  0
 11 40  1  0
 12 13  1  0
 12 41  1  0
 12 42  1  0
 13 14  1  0
 14 15  1  0
 14 20  2  0
 15 16  2  0
 15 43  1  0
 16 17  1  0
 16 18  1  0
 18 19  2  0
 18 44  1  0
 19 20  1  0
 19 45  1  0
 21 46  1  0
 21 47  1  0
M  END

