
     RDKit          3D

 36 37  0  0  0  0  0  0  0  0999 V2000
    4.4933   -2.0755    2.6633 C   0  0  0  0  0  0  0  0  0  0  0  0
    3.0991   -2.6217    2.6818 C   0  0  0  0  0  0  0  0  0  0  0  0
    2.2822   -2.9469    4.1821 S   0  0  0  0  0  0  0  0  0  0  0  0
    0.8546   -3.5172    3.3632 C   0  0  0  0  0  0  0  0  0  0  0  0
   -0.6424   -4.0993    4.3410 Br  0  0  0  0  0  0  0  0  0  0  0  0
    0.9886   -3.4633    2.0028 C   0  0  0  0  0  0  0  0  0  0  0  0
    2.2742   -2.9589    1.6279 C   0  0  0  0  0  0  0  0  0  0  0  0
    2.6957   -2.7187   -0.0920 S   0  0  1  0  0  0  0  0  0  0  0  0
    1.5093   -3.1014   -0.8661 O   0  0  0  0  0  0  0  0  0  0  0  0
    3.2831   -1.3842   -0.2584 O   0  0  0  0  0  0  0  0  0  0  0  0
    3.9585   -3.8399   -0.3230 N   0  0  0  0  0  0  0  0  0  0  0  0
    3.5005   -5.2343   -0.3515 C   0  0  0  0  0  0  0  0  0  0  0  0
    4.6191   -6.2578   -0.1277 C   0  0  0  0  0  0  0  0  0  0  0  0
    5.6196   -6.3805   -1.2883 C   0  0  0  0  0  0  0  0  0  0  0  0
    6.7807   -5.3586   -1.3193 C   0  0  2  0  0  0  0  0  0  0  0  0
    7.9759   -5.8263   -0.4773 C   0  0  0  0  0  0  0  0  0  0  0  0
    6.3819   -3.9227   -0.9098 C   0  0  0  0  0  0  0  0  0  0  0  0
    4.9808   -3.4417   -1.3072 C   0  0  0  0  0  0  0  0  0  0  0  0
    4.7584   -1.6130    3.6249 H   0  0  0  0  0  0  0  0  0  0  0  0
    4.5844   -1.3234    1.8669 H   0  0  0  0  0  0  0  0  0  0  0  0
    5.2241   -2.8749    2.4541 H   0  0  0  0  0  0  0  0  0  0  0  0
    0.2235   -3.7500    1.2830 H   0  0  0  0  0  0  0  0  0  0  0  0
    2.9865   -5.4542   -1.3081 H   0  0  0  0  0  0  0  0  0  0  0  0
    2.7490   -5.3543    0.4438 H   0  0  0  0  0  0  0  0  0  0  0  0
    4.1189   -7.2316    0.0074 H   0  0  0  0  0  0  0  0  0  0  0  0
    5.1342   -6.0450    0.8246 H   0  0  0  0  0  0  0  0  0  0  0  0
    5.0505   -6.3189   -2.2322 H   0  0  0  0  0  0  0  0  0  0  0  0
    6.0589   -7.3922   -1.2816 H   0  0  0  0  0  0  0  0  0  0  0  0
    7.1216   -5.3161   -2.3696 H   0  0  0  0  0  0  0  0  0  0  0  0
    7.6911   -5.9623    0.5803 H   0  0  0  0  0  0  0  0  0  0  0  0
    8.7963   -5.0903   -0.5035 H   0  0  0  0  0  0  0  0  0  0  0  0
    8.3754   -6.7862   -0.8423 H   0  0  0  0  0  0  0  0  0  0  0  0
    7.1221   -3.2280   -1.3419 H   0  0  0  0  0  0  0  0  0  0  0  0
    6.4666   -3.8070    0.1843 H   0  0  0  0  0  0  0  0  0  0  0  0
    4.7089   -3.7971   -2.3207 H   0  0  0  0  0  0  0  0  0  0  0  0
    4.9728   -2.3454   -1.3411 H   0  0  0  0  0  0  0  0  0  0  0  0
  1  2  1  0
  1 19  1  0
  1 20  1  0
  1 21  1  0
  2  3  1  0
  2  7  2  0
  3  4  1  0
  4  5  1  0
  4  6  2  0
  6  7  1  0
  6 22  1  0
  8  7  1  1
  8  9  2  0
  8 10  2  0
  8 11  1  0
 11 12  1  0
 11 18  1  0
 12 13  1  0
 12 23  1  0
 12 24  1  0
 13 14  1  0
 13 25  1  0
 13 26  1  0
 14 15  1  0
 14 27  1  0
 14 28  1  0
 15 16  1  0
 15 17  1  0
 15 29  1  6
 16 30  1  0
 16 31  1  0
 16 32  1  0
 17 18  1  0
 17 33  1  0
 17 34  1  0
 18 35  1  0
 18 36  1  0
M  END

