
     RDKit          3D

 40 42  0  0  0  0  0  0  0  0999 V2000
    1.2248   -2.1277    0.5430 C   0  0  0  0  0  0  0  0  0  0  0  0
    2.5717   -2.1689    0.1567 O   0  0  0  0  0  0  0  0  0  0  0  0
    2.9455   -1.1357   -0.7229 C   0  0  0  0  0  0  0  0  0  0  0  0
    4.4285   -1.2855   -1.0720 C   0  0  1  0  0  0  0  0  0  0  0  0
    4.7734   -2.6707   -1.6505 C   0  0  0  0  0  0  0  0  0  0  0  0
    4.2800   -2.8212   -3.0934 C   0  0  0  0  0  0  0  0  0  0  0  0
    4.7548   -1.6660   -3.9769 C   0  0  0  0  0  0  0  0  0  0  0  0
    4.3795   -0.3729   -3.3934 N   0  0  0  0  0  0  0  0  0  0  0  0
    4.0459    0.6389   -4.2732 C   0  0  0  0  0  0  0  0  0  0  0  0
    4.1435    0.4499   -5.4936 O   0  0  0  0  0  0  0  0  0  0  0  0
    3.5295    1.9459   -3.8074 C   0  0  0  0  0  0  0  0  0  0  0  0
    2.8336    2.2996   -2.2053 S   0  0  0  0  0  0  0  0  0  0  0  0
    2.3935    3.9078   -2.7025 C   0  0  0  0  0  0  0  0  0  0  0  0
    1.7588    4.9075   -1.9459 C   0  0  0  0  0  0  0  0  0  0  0  0
    1.4905    6.1045   -2.4505 N   0  0  0  0  0  0  0  0  0  0  0  0
    1.8406    6.3656   -3.7237 C   0  0  0  0  0  0  0  0  0  0  0  0
    2.4707    5.4469   -4.5571 C   0  0  0  0  0  0  0  0  0  0  0  0
    2.7589    4.1714   -4.0401 C   0  0  0  0  0  0  0  0  0  0  0  0
    3.3844    3.0273   -4.6809 C   0  0  0  0  0  0  0  0  0  0  0  0
    3.7819    3.0488   -5.9812 N   0  0  0  0  0  0  0  0  0  0  0  0
    4.9023   -0.1851   -2.0373 C   0  0  0  0  0  0  0  0  0  0  0  0
    1.0405   -2.9769    1.2176 H   0  0  0  0  0  0  0  0  0  0  0  0
    0.5398   -2.2115   -0.3255 H   0  0  0  0  0  0  0  0  0  0  0  0
    0.9743   -1.1902    1.0806 H   0  0  0  0  0  0  0  0  0  0  0  0
    2.7742   -0.1457   -0.2508 H   0  0  0  0  0  0  0  0  0  0  0  0
    2.3198   -1.1569   -1.6390 H   0  0  0  0  0  0  0  0  0  0  0  0
    4.9893   -1.1544   -0.1303 H   0  0  0  0  0  0  0  0  0  0  0  0
    4.3513   -3.4542   -1.0046 H   0  0  0  0  0  0  0  0  0  0  0  0
    5.8714   -2.7921   -1.6307 H   0  0  0  0  0  0  0  0  0  0  0  0
    3.1779   -2.8655   -3.1184 H   0  0  0  0  0  0  0  0  0  0  0  0
    4.6397   -3.7707   -3.5235 H   0  0  0  0  0  0  0  0  0  0  0  0
    4.3295   -1.7192   -4.9851 H   0  0  0  0  0  0  0  0  0  0  0  0
    5.8574   -1.7085   -4.0921 H   0  0  0  0  0  0  0  0  0  0  0  0
    1.4661    4.7218   -0.9056 H   0  0  0  0  0  0  0  0  0  0  0  0
    1.6037    7.3692   -4.0938 H   0  0  0  0  0  0  0  0  0  0  0  0
    2.7369    5.7274   -5.5793 H   0  0  0  0  0  0  0  0  0  0  0  0
    3.4105    3.7670   -6.5878 H   0  0  0  0  0  0  0  0  0  0  0  0
    3.9861    2.1287   -6.3721 H   0  0  0  0  0  0  0  0  0  0  0  0
    4.6416    0.8095   -1.6587 H   0  0  0  0  0  0  0  0  0  0  0  0
    6.0094   -0.2186   -2.0831 H   0  0  0  0  0  0  0  0  0  0  0  0
  1  2  1  0
  1 22  1  0
  1 23  1  0
  1 24  1  0
  2  3  1  0
  3  4  1  0
  3 25  1  0
  3 26  1  0
  4  5  1  0
  4 21  1  0
  4 27  1  1
  5  6  1  0
  5 28  1  0
  5 29  1  0
  6  7  1  0
  6 30  1  0
  6 31  1  0
  7  8  1  0
  7 32  1  0
  7 33  1  0
  8  9  1  0
  8 21  1  0
  9 10  2  0
  9 11  1  0
 11 12  1  0
 11 19  2  0
 12 13  1  0
 13 14  2  0
 13 18  1  0
 14 15  1  0
 14 34  1  0
 15 16  2  0
 16 17  1  0
 16 35  1  0
 17 18  2  0
 17 36  1  0
 18 19  1  0
 19 20  1  0
 20 37  1  0
 20 38  1  0
 21 39  1  0
 21 40  1  0
M  END

