
     RDKit          3D

 52 53  0  0  0  0  0  0  0  0999 V2000
    5.1713    3.2979    4.5921 C   0  0  0  0  0  0  0  0  0  0  0  0
    3.8923    2.5035    4.3223 C   0  0  0  0  0  0  0  0  0  0  0  0
    4.1461    1.1309    3.9159 N   0  0  0  0  0  0  0  0  0  0  0  0
    4.0446    0.7101    2.6320 C   0  0  0  0  0  0  0  0  0  0  0  0
    3.6512    1.4087    1.7044 O   0  0  0  0  0  0  0  0  0  0  0  0
    4.4818   -0.7608    2.4135 C   0  0  1  0  0  0  0  0  0  0  0  0
    4.2005   -1.3214    3.3153 H   0  0  0  0  0  0  0  0  0  0  0  0
    3.7621   -1.3632    1.2132 C   0  0  0  0  0  0  0  0  0  0  0  0
    5.9640   -0.8721    2.3549 N   0  0  0  0  0  0  0  0  0  0  0  0
    6.6824   -0.8332    1.0713 C   0  0  0  0  0  0  0  0  0  0  0  0
    7.4316    0.4502    0.7376 C   0  0  0  0  0  0  0  0  0  0  0  0
    8.8135    0.4158    0.4957 C   0  0  0  0  0  0  0  0  0  0  0  0
    9.5211    1.5692    0.1445 C   0  0  0  0  0  0  0  0  0  0  0  0
    8.8273    2.7705    0.0363 C   0  0  0  0  0  0  0  0  0  0  0  0
    9.4940    3.8849   -0.2966 F   0  0  0  0  0  0  0  0  0  0  0  0
    7.4531    2.8395    0.2602 C   0  0  0  0  0  0  0  0  0  0  0  0
    6.7590    1.6785    0.6057 C   0  0  0  0  0  0  0  0  0  0  0  0
    6.6059   -1.0322    3.5569 C   0  0  0  0  0  0  0  0  0  0  0  0
    6.0006   -0.9712    4.6273 O   0  0  0  0  0  0  0  0  0  0  0  0
    8.1041   -1.3165    3.5397 C   0  0  0  0  0  0  0  0  0  0  0  0
    8.6468   -1.5376    4.9492 C   0  0  0  0  0  0  0  0  0  0  0  0
   10.4391   -1.8748    4.8286 S   0  0  0  0  0  0  0  0  0  0  0  0
   10.9379   -2.1300    6.5165 C   0  0  0  0  0  0  0  0  0  0  0  0
   12.2983   -2.4295    6.7248 C   0  0  0  0  0  0  0  0  0  0  0  0
   12.7848   -2.6442    8.0133 C   0  0  0  0  0  0  0  0  0  0  0  0
   11.9285   -2.5660    9.1181 C   0  0  0  0  0  0  0  0  0  0  0  0
   10.5798   -2.2695    8.9142 C   0  0  0  0  0  0  0  0  0  0  0  0
   10.0799   -2.0513    7.6253 C   0  0  0  0  0  0  0  0  0  0  0  0
    4.9285    4.3231    4.9150 H   0  0  0  0  0  0  0  0  0  0  0  0
    5.7937    3.3620    3.6859 H   0  0  0  0  0  0  0  0  0  0  0  0
    5.7746    2.8290    5.3868 H   0  0  0  0  0  0  0  0  0  0  0  0
    3.3122    2.9706    3.5138 H   0  0  0  0  0  0  0  0  0  0  0  0
    3.2559    2.4935    5.2241 H   0  0  0  0  0  0  0  0  0  0  0  0
    4.6014    0.4885    4.5662 H   0  0  0  0  0  0  0  0  0  0  0  0
    2.6866   -1.4177    1.4388 H   0  0  0  0  0  0  0  0  0  0  0  0
    4.1178   -2.3836    1.0048 H   0  0  0  0  0  0  0  0  0  0  0  0
    3.8611   -0.7386    0.3147 H   0  0  0  0  0  0  0  0  0  0  0  0
    5.9414   -1.0237    0.2856 H   0  0  0  0  0  0  0  0  0  0  0  0
    7.3863   -1.6779    1.0248 H   0  0  0  0  0  0  0  0  0  0  0  0
    9.3558   -0.5308    0.5760 H   0  0  0  0  0  0  0  0  0  0  0  0
   10.5963    1.5481   -0.0429 H   0  0  0  0  0  0  0  0  0  0  0  0
    6.9398    3.7972    0.1523 H   0  0  0  0  0  0  0  0  0  0  0  0
    5.6790    1.7347    0.7639 H   0  0  0  0  0  0  0  0  0  0  0  0
    8.6279   -0.4775    3.0543 H   0  0  0  0  0  0  0  0  0  0  0  0
    8.3043   -2.2016    2.9115 H   0  0  0  0  0  0  0  0  0  0  0  0
    8.1341   -2.3840    5.4282 H   0  0  0  0  0  0  0  0  0  0  0  0
    8.4688   -0.6463    5.5677 H   0  0  0  0  0  0  0  0  0  0  0  0
   12.9748   -2.4933    5.8682 H   0  0  0  0  0  0  0  0  0  0  0  0
   13.8439   -2.8755    8.1551 H   0  0  0  0  0  0  0  0  0  0  0  0
   12.3114   -2.7349   10.1273 H   0  0  0  0  0  0  0  0  0  0  0  0
    9.8983   -2.2045    9.7667 H   0  0  0  0  0  0  0  0  0  0  0  0
    9.0218   -1.8209    7.5002 H   0  0  0  0  0  0  0  0  0  0  0  0
  1  2  1  0
  1 29  1  0
  1 30  1  0
  1 31  1  0
  2  3  1  0
  2 32  1  0
  2 33  1  0
  3  4  1  0
  3 34  1  0
  4  5  2  0
  4  6  1  0
  6  7  1  1
  6  8  1  0
  6  9  1  0
  8 35  1  0
  8 36  1  0
  8 37  1  0
  9 10  1  0
  9 18  1  0
 10 11  1  0
 10 38  1  0
 10 39  1  0
 11 12  2  0
 11 17  1  0
 12 13  1  0
 12 40  1  0
 13 14  2  0
 13 41  1  0
 14 15  1  0
 14 16  1  0
 16 17  2  0
 16 42  1  0
 17 43  1  0
 18 19  2  0
 18 20  1  0
 20 21  1  0
 20 44  1  0
 20 45  1  0
 21 22  1  0
 21 46  1  0
 21 47  1  0
 22 23  1  0
 23 24  2  0
 23 28  1  0
 24 25  1  0
 24 48  1  0
 25 26  2  0
 25 49  1  0
 26 27  1  0
 26 50  1  0
 27 28  2  0
 27 51  1  0
 28 52  1  0
M  END

