
     RDKit          3D

 55 57  0  0  0  0  0  0  0  0999 V2000
    3.0967    1.1873   -1.3337 C   0  0  0  0  0  0  0  0  0  0  0  0
    4.0093    1.0790   -0.2393 O   0  0  0  0  0  0  0  0  0  0  0  0
    3.9715   -0.0701    0.4584 C   0  0  0  0  0  0  0  0  0  0  0  0
    3.2089   -0.9713    0.2114 O   0  0  0  0  0  0  0  0  0  0  0  0
    5.0393   -0.0746    1.5466 C   0  0  0  0  0  0  0  0  0  0  0  0
    4.7089   -0.9730    2.7143 C   0  0  0  0  0  0  0  0  0  0  0  0
    4.3915   -0.4329    3.9683 C   0  0  0  0  0  0  0  0  0  0  0  0
    4.0529   -1.2748    5.0324 C   0  0  0  0  0  0  0  0  0  0  0  0
    4.0059   -2.6571    4.8541 C   0  0  0  0  0  0  0  0  0  0  0  0
    4.3189   -3.1975    3.6008 C   0  0  0  0  0  0  0  0  0  0  0  0
    4.3128   -4.5672    3.4982 O   0  0  0  0  0  0  0  0  0  0  0  0
    3.8336   -5.2372    2.4013 C   0  0  0  0  0  0  0  0  0  0  0  0
    4.2963   -6.5474    2.2289 C   0  0  0  0  0  0  0  0  0  0  0  0
    3.8182   -7.3292    1.1790 C   0  0  0  0  0  0  0  0  0  0  0  0
    2.8633   -6.8310    0.2760 C   0  0  0  0  0  0  0  0  0  0  0  0
    2.4173   -7.6590   -0.9311 C   0  0  1  0  0  0  0  0  0  0  0  0
    2.7217   -9.0483   -0.8147 O   0  0  0  0  0  0  0  0  0  0  0  0
    1.9401   -9.7621    0.1584 C   0  0  2  0  0  0  0  0  0  0  0  0
    2.6400  -11.1083    0.3213 C   0  0  0  0  0  0  0  0  0  0  0  0
    3.9983  -10.9428    0.6640 O   0  0  0  0  0  0  0  0  0  0  0  0
    0.4593   -9.8062   -0.2534 C   0  0  2  0  0  0  0  0  0  0  0  0
    0.1619  -10.7245   -1.4476 C   0  0  0  0  0  0  0  0  0  0  0  0
   -0.0111   -8.3343   -0.4454 C   0  0  2  0  0  0  0  0  0  0  0  0
   -1.3217   -8.2429   -0.9530 O   0  0  0  0  0  0  0  0  0  0  0  0
    0.9399   -7.5142   -1.3391 C   0  0  2  0  0  0  0  0  0  0  0  0
    0.7531   -7.8827   -2.7033 O   0  0  0  0  0  0  0  0  0  0  0  0
    2.4186   -5.5130    0.4628 C   0  0  0  0  0  0  0  0  0  0  0  0
    2.8872   -4.7158    1.5106 C   0  0  0  0  0  0  0  0  0  0  0  0
    4.6877   -2.3638    2.5412 C   0  0  0  0  0  0  0  0  0  0  0  0
    3.2741    2.1720   -1.7831 H   0  0  0  0  0  0  0  0  0  0  0  0
    2.0563    1.1090   -0.9835 H   0  0  0  0  0  0  0  0  0  0  0  0
    3.2754    0.3918   -2.0729 H   0  0  0  0  0  0  0  0  0  0  0  0
    5.2148    0.9617    1.8673 H   0  0  0  0  0  0  0  0  0  0  0  0
    5.9713   -0.4049    1.0525 H   0  0  0  0  0  0  0  0  0  0  0  0
    4.4085    0.6505    4.1132 H   0  0  0  0  0  0  0  0  0  0  0  0
    3.8126   -0.8479    6.0094 H   0  0  0  0  0  0  0  0  0  0  0  0
    3.7344   -3.3330    5.6670 H   0  0  0  0  0  0  0  0  0  0  0  0
    5.0302   -6.9416    2.9346 H   0  0  0  0  0  0  0  0  0  0  0  0
    4.1859   -8.3503    1.0729 H   0  0  0  0  0  0  0  0  0  0  0  0
    3.0078   -7.3239   -1.8018 H   0  0  0  0  0  0  0  0  0  0  0  0
    2.0117   -9.2318    1.1247 H   0  0  0  0  0  0  0  0  0  0  0  0
    2.5348  -11.7013   -0.6075 H   0  0  0  0  0  0  0  0  0  0  0  0
    2.1571  -11.6749    1.1337 H   0  0  0  0  0  0  0  0  0  0  0  0
    4.3761  -10.3814   -0.0291 H   0  0  0  0  0  0  0  0  0  0  0  0
   -0.1109  -10.1960    0.6079 H   0  0  0  0  0  0  0  0  0  0  0  0
    0.8772  -10.5961   -2.2760 H   0  0  0  0  0  0  0  0  0  0  0  0
   -0.8516  -10.5323   -1.8271 H   0  0  0  0  0  0  0  0  0  0  0  0
    0.2047  -11.7843   -1.1537 H   0  0  0  0  0  0  0  0  0  0  0  0
   -0.0167   -7.8638    0.5534 H   0  0  0  0  0  0  0  0  0  0  0  0
   -1.2272   -8.2161   -1.9190 H   0  0  0  0  0  0  0  0  0  0  0  0
    0.6286   -6.4615   -1.2873 H   0  0  0  0  0  0  0  0  0  0  0  0
    1.2308   -8.7115   -2.8508 H   0  0  0  0  0  0  0  0  0  0  0  0
    1.6943   -5.0697   -0.2237 H   0  0  0  0  0  0  0  0  0  0  0  0
    2.5222   -3.6934    1.6138 H   0  0  0  0  0  0  0  0  0  0  0  0
    4.9394   -2.7966    1.5724 H   0  0  0  0  0  0  0  0  0  0  0  0
  1  2  1  0
  1 30  1  0
  1 31  1  0
  1 32  1  0
  2  3  1  0
  3  4  2  0
  3  5  1  0
  5  6  1  0
  5 33  1  0
  5 34  1  0
  6  7  2  0
  6 29  1  0
  7  8  1  0
  7 35  1  0
  8  9  2  0
  8 36  1  0
  9 10  1  0
  9 37  1  0
 10 11  1  0
 10 29  2  0
 11 12  1  0
 12 13  2  0
 12 28  1  0
 13 14  1  0
 13 38  1  0
 14 15  2  0
 14 39  1  0
 15 16  1  0
 15 27  1  0
 16 17  1  0
 16 25  1  0
 16 40  1  6
 17 18  1  0
 18 19  1  0
 18 21  1  0
 18 41  1  1
 19 20  1  0
 19 42  1  0
 19 43  1  0
 20 44  1  0
 21 22  1  0
 21 23  1  0
 21 45  1  1
 22 46  1  0
 22 47  1  0
 22 48  1  0
 23 24  1  0
 23 25  1  0
 23 49  1  1
 24 50  1  0
 25 26  1  0
 25 51  1  6
 26 52  1  0
 27 28  2  0
 27 53  1  0
 28 54  1  0
 29 55  1  0
M  END

