
     RDKit          3D

 85 89  0  0  0  0  0  0  0  0999 V2000
    3.7901    4.9368   -2.9594 C   0  0  0  0  0  0  0  0  0  0  0  0
    4.7613    3.9123   -2.3497 C   0  0  1  0  0  0  0  0  0  0  0  0
    4.7424    3.9184   -0.8069 C   0  0  1  0  0  0  0  0  0  0  0  0
    5.3929    5.1502   -0.1581 C   0  0  0  0  0  0  0  0  0  0  0  0
    4.6606    5.2277    1.1858 C   0  0  0  0  0  0  0  0  0  0  0  0
    3.2455    4.7976    0.7929 C   0  0  0  0  0  0  0  0  0  0  0  0
    3.4045    3.8831   -0.2965 O   0  0  0  0  0  0  0  0  0  0  0  0
    4.5921    2.5576   -2.9106 N   0  0  0  0  0  0  0  0  0  0  0  0
    3.7214    1.5655   -2.2647 C   0  0  0  0  0  0  0  0  0  0  0  0
    2.2093    1.6578   -2.6487 C   0  0  1  0  0  0  0  0  0  0  0  0
    2.0569    2.6098   -3.1821 H   0  0  0  0  0  0  0  0  0  0  0  0
    1.7760    0.5372   -3.6012 C   0  0  0  0  0  0  0  0  0  0  0  0
    1.7022   -0.7175   -2.9317 O   0  0  0  0  0  0  0  0  0  0  0  0
    0.8402   -0.7334   -1.7983 C   0  0  2  0  0  0  0  0  0  0  0  0
    1.0210   -1.7165   -1.3296 H   0  0  0  0  0  0  0  0  0  0  0  0
   -0.6460   -0.6400   -2.1823 C   0  0  0  0  0  0  0  0  0  0  0  0
   -1.0470   -1.6354   -3.2857 C   0  0  0  0  0  0  0  0  0  0  0  0
   -2.4791   -1.4797   -3.7393 C   0  0  0  0  0  0  0  0  0  0  0  0
   -2.7887   -0.5674   -4.7493 C   0  0  0  0  0  0  0  0  0  0  0  0
   -1.7921    0.1414   -5.3111 F   0  0  0  0  0  0  0  0  0  0  0  0
   -4.0931   -0.3703   -5.1928 C   0  0  0  0  0  0  0  0  0  0  0  0
   -5.1106   -1.0451   -4.6630 N   0  0  0  0  0  0  0  0  0  0  0  0
   -4.8745   -1.9228   -3.6884 C   0  0  0  0  0  0  0  0  0  0  0  0
   -3.5799   -2.1736   -3.1822 C   0  0  0  0  0  0  0  0  0  0  0  0
   -3.3341   -3.0878   -2.1411 N   0  0  0  0  0  0  0  0  0  0  0  0
   -4.2117   -3.9462   -1.5012 C   0  0  0  0  0  0  0  0  0  0  0  0
   -5.3939   -4.0329   -1.7646 O   0  0  0  0  0  0  0  0  0  0  0  0
   -3.5598   -4.7762   -0.3967 C   0  0  0  0  0  0  0  0  0  0  0  0
   -3.3137   -3.9754    0.9087 C   0  0  1  0  0  0  0  0  0  0  0  0
   -4.6167   -3.4329    1.4970 C   0  0  0  0  0  0  0  0  0  0  0  0
   -5.5292   -4.2797    2.1471 C   0  0  0  0  0  0  0  0  0  0  0  0
   -6.7290   -3.7903    2.6629 C   0  0  0  0  0  0  0  0  0  0  0  0
   -7.0181   -2.4333    2.5277 C   0  0  0  0  0  0  0  0  0  0  0  0
   -8.1678   -1.9562    3.0262 F   0  0  0  0  0  0  0  0  0  0  0  0
   -6.1376   -1.5639    1.8919 C   0  0  0  0  0  0  0  0  0  0  0  0
   -4.9410   -2.0738    1.3797 C   0  0  0  0  0  0  0  0  0  0  0  0
   -2.4978   -4.7533    1.9422 C   0  0  0  0  0  0  0  0  0  0  0  0
   -1.8150   -4.0387    2.9428 C   0  0  0  0  0  0  0  0  0  0  0  0
   -1.0705   -4.6884    3.9263 C   0  0  0  0  0  0  0  0  0  0  0  0
   -1.0076   -6.0812    3.9119 C   0  0  0  0  0  0  0  0  0  0  0  0
   -0.2926   -6.7147    4.8527 F   0  0  0  0  0  0  0  0  0  0  0  0
   -1.6684   -6.8236    2.9396 C   0  0  0  0  0  0  0  0  0  0  0  0
   -2.4090   -6.1532    1.9594 C   0  0  0  0  0  0  0  0  0  0  0  0
    1.2647    0.3630   -0.8124 C   0  0  0  0  0  0  0  0  0  0  0  0
    1.3017    1.6489   -1.4983 N   0  0  0  0  0  0  0  0  0  0  0  0
    5.0665    2.2156   -4.1663 C   0  0  0  0  0  0  0  0  0  0  0  0
    4.8243    1.1641   -4.7109 O   0  0  0  0  0  0  0  0  0  0  0  0
    5.8467    3.1305   -4.7982 O   0  0  0  0  0  0  0  0  0  0  0  0
    4.0306    5.9618   -2.6373 H   0  0  0  0  0  0  0  0  0  0  0  0
    2.7583    4.7189   -2.6538 H   0  0  0  0  0  0  0  0  0  0  0  0
    3.8433    4.9092   -4.0578 H   0  0  0  0  0  0  0  0  0  0  0  0
    5.7985    4.2263   -2.5775 H   0  0  0  0  0  0  0  0  0  0  0  0
    5.2806    3.0133   -0.4672 H   0  0  0  0  0  0  0  0  0  0  0  0
    5.1986    6.0574   -0.7529 H   0  0  0  0  0  0  0  0  0  0  0  0
    6.4828    5.0385   -0.0594 H   0  0  0  0  0  0  0  0  0  0  0  0
    4.6919    6.2260    1.6463 H   0  0  0  0  0  0  0  0  0  0  0  0
    5.0962    4.5112    1.9011 H   0  0  0  0  0  0  0  0  0  0  0  0
    2.6380    5.6611    0.4626 H   0  0  0  0  0  0  0  0  0  0  0  0
    2.7013    4.2922    1.6070 H   0  0  0  0  0  0  0  0  0  0  0  0
    3.8120    1.6866   -1.1793 H   0  0  0  0  0  0  0  0  0  0  0  0
    4.1172    0.5737   -2.5183 H   0  0  0  0  0  0  0  0  0  0  0  0
    2.5166    0.4143   -4.4020 H   0  0  0  0  0  0  0  0  0  0  0  0
    0.8010    0.7972   -4.0529 H   0  0  0  0  0  0  0  0  0  0  0  0
   -0.8803    0.3857   -2.5043 H   0  0  0  0  0  0  0  0  0  0  0  0
   -1.2474   -0.8147   -1.2726 H   0  0  0  0  0  0  0  0  0  0  0  0
   -0.8504   -2.6702   -2.9527 H   0  0  0  0  0  0  0  0  0  0  0  0
   -0.3825   -1.4840   -4.1470 H   0  0  0  0  0  0  0  0  0  0  0  0
   -4.2944    0.3519   -5.9916 H   0  0  0  0  0  0  0  0  0  0  0  0
   -5.7246   -2.4635   -3.2737 H   0  0  0  0  0  0  0  0  0  0  0  0
   -2.3654   -3.1582   -1.8557 H   0  0  0  0  0  0  0  0  0  0  0  0
   -2.6015   -5.1929   -0.7511 H   0  0  0  0  0  0  0  0  0  0  0  0
   -4.2451   -5.6141   -0.2115 H   0  0  0  0  0  0  0  0  0  0  0  0
   -2.7066   -3.0949    0.6380 H   0  0  0  0  0  0  0  0  0  0  0  0
   -5.2983   -5.3416    2.2632 H   0  0  0  0  0  0  0  0  0  0  0  0
   -7.4430   -4.4423    3.1699 H   0  0  0  0  0  0  0  0  0  0  0  0
   -6.3957   -0.5071    1.8017 H   0  0  0  0  0  0  0  0  0  0  0  0
   -4.2496   -1.3934    0.8746 H   0  0  0  0  0  0  0  0  0  0  0  0
   -1.8726   -2.9466    2.9561 H   0  0  0  0  0  0  0  0  0  0  0  0
   -0.5380   -4.1349    4.7023 H   0  0  0  0  0  0  0  0  0  0  0  0
   -1.5971   -7.9129    2.9548 H   0  0  0  0  0  0  0  0  0  0  0  0
   -2.9195   -6.7496    1.2012 H   0  0  0  0  0  0  0  0  0  0  0  0
    2.2413    0.0635   -0.3726 H   0  0  0  0  0  0  0  0  0  0  0  0
    0.5430    0.4174    0.0198 H   0  0  0  0  0  0  0  0  0  0  0  0
    1.5658    2.3935   -0.8548 H   0  0  0  0  0  0  0  0  0  0  0  0
    6.0246    3.9030   -4.2480 H   0  0  0  0  0  0  0  0  0  0  0  0
  1  2  1  0
  1 49  1  0
  1 50  1  0
  1 51  1  0
  2  3  1  0
  2  8  1  0
  2 52  1  1
  3  4  1  0
  3  7  1  0
  3 53  1  1
  4  5  1  0
  4 54  1  0
  4 55  1  0
  5  6  1  0
  5 56  1  0
  5 57  1  0
  6  7  1  0
  6 58  1  0
  6 59  1  0
  8  9  1  0
  8 46  1  0
  9 10  1  0
  9 60  1  0
  9 61  1  0
 10 11  1  6
 10 12  1  0
 10 45  1  0
 12 13  1  0
 12 62  1  0
 12 63  1  0
 13 14  1  0
 14 15  1  1
 14 16  1  0
 14 44  1  0
 16 17  1  0
 16 64  1  0
 16 65  1  0
 17 18  1  0
 17 66  1  0
 17 67  1  0
 18 19  2  0
 18 24  1  0
 19 20  1  0
 19 21  1  0
 21 22  2  0
 21 68  1  0
 22 23  1  0
 23 24  2  0
 23 69  1  0
 24 25  1  0
 25 26  1  0
 25 70  1  0
 26 27  2  0
 26 28  1  0
 28 29  1  0
 28 71  1  0
 28 72  1  0
 29 30  1  0
 29 37  1  0
 29 73  1  6
 30 31  2  0
 30 36  1  0
 31 32  1  0
 31 74  1  0
 32 33  2  0
 32 75  1  0
 33 34  1  0
 33 35  1  0
 35 36  2  0
 35 76  1  0
 36 77  1  0
 37 38  2  0
 37 43  1  0
 38 39  1  0
 38 78  1  0
 39 40  2  0
 39 79  1  0
 40 41  1  0
 40 42  1  0
 42 43  2  0
 42 80  1  0
 43 81  1  0
 44 45  1  0
 44 82  1  0
 44 83  1  0
 45 84  1  0
 46 47  2  0
 46 48  1  0
 48 85  1  0
M  END

