
     RDKit          3D

 35 37  0  0  0  0  0  0  0  0999 V2000
    0.9282   -0.4572   -0.0586 C   0  0  0  0  0  0  0  0  0  0  0  0
    2.4054   -0.2002   -0.0617 C   0  0  0  0  0  0  0  0  0  0  0  0
    3.0498    1.4090   -0.1033 S   0  0  0  0  0  0  0  0  0  0  0  0
    4.6934    0.8278   -0.0899 C   0  0  0  0  0  0  0  0  0  0  0  0
    5.9045    1.6990   -0.1089 C   0  0  0  0  0  0  0  0  0  0  0  0
    5.6867    3.0449    0.0187 N   0  0  0  0  0  0  0  0  0  0  0  0
    7.0203    1.2277   -0.2386 O   0  0  0  0  0  0  0  0  0  0  0  0
    4.7331   -0.5463   -0.0658 C   0  0  0  0  0  0  0  0  0  0  0  0
    3.4308   -1.1351   -0.0486 C   0  0  0  0  0  0  0  0  0  0  0  0
    3.1549   -2.5118   -0.0351 N   0  0  0  0  0  0  0  0  0  0  0  0
    4.0606   -3.5446    0.0990 C   0  0  0  0  0  0  0  0  0  0  0  0
    5.2557   -3.3759    0.2630 O   0  0  0  0  0  0  0  0  0  0  0  0
    3.4651   -4.9278    0.0437 C   0  0  0  0  0  0  0  0  0  0  0  0
    4.2024   -5.9713    0.6744 C   0  0  0  0  0  0  0  0  0  0  0  0
    3.7437   -7.2676    0.6607 C   0  0  0  0  0  0  0  0  0  0  0  0
    2.5309   -7.6044   -0.0053 C   0  0  0  0  0  0  0  0  0  0  0  0
    2.1123   -8.8986    0.0001 N   0  0  0  0  0  0  0  0  0  0  0  0
    0.9990   -9.1974   -0.6320 C   0  0  0  0  0  0  0  0  0  0  0  0
    0.2012   -8.2494   -1.3274 C   0  0  0  0  0  0  0  0  0  0  0  0
    0.6049   -6.9332   -1.3449 C   0  0  0  0  0  0  0  0  0  0  0  0
    1.7985   -6.5641   -0.6685 C   0  0  0  0  0  0  0  0  0  0  0  0
    2.2918   -5.2327   -0.6259 C   0  0  0  0  0  0  0  0  0  0  0  0
    0.3559    0.4809   -0.0878 H   0  0  0  0  0  0  0  0  0  0  0  0
    0.6105   -1.0022    0.8483 H   0  0  0  0  0  0  0  0  0  0  0  0
    0.6148   -1.0531   -0.9349 H   0  0  0  0  0  0  0  0  0  0  0  0
    4.7858    3.4383    0.2560 H   0  0  0  0  0  0  0  0  0  0  0  0
    6.5018    3.6458    0.0475 H   0  0  0  0  0  0  0  0  0  0  0  0
    5.6620   -1.1096   -0.0511 H   0  0  0  0  0  0  0  0  0  0  0  0
    2.1758   -2.7671   -0.0294 H   0  0  0  0  0  0  0  0  0  0  0  0
    5.1409   -5.7062    1.1645 H   0  0  0  0  0  0  0  0  0  0  0  0
    4.2909   -8.0760    1.1492 H   0  0  0  0  0  0  0  0  0  0  0  0
    0.6852  -10.2490   -0.6101 H   0  0  0  0  0  0  0  0  0  0  0  0
   -0.7113   -8.5718   -1.8336 H   0  0  0  0  0  0  0  0  0  0  0  0
    0.0219   -6.1699   -1.8686 H   0  0  0  0  0  0  0  0  0  0  0  0
    1.7342   -4.4633   -1.1682 H   0  0  0  0  0  0  0  0  0  0  0  0
  1  2  1  0
  1 23  1  0
  1 24  1  0
  1 25  1  0
  2  3  2  0
  2  9  1  0
  3  4  1  0
  4  5  2  0
  4  8  1  0
  5  6  1  0
  5  7  1  0
  6 26  1  0
  6 27  1  0
  8  9  2  0
  8 28  1  0
  9 10  1  0
 10 11  1  0
 10 29  1  0
 11 12  2  0
 11 13  1  0
 13 14  2  0
 13 22  1  0
 14 15  1  0
 14 30  1  0
 15 16  2  0
 15 31  1  0
 16 17  1  0
 16 21  1  0
 17 18  2  0
 18 19  1  0
 18 32  1  0
 19 20  2  0
 19 33  1  0
 20 21  1  0
 20 34  1  0
 21 22  2  0
 22 35  1  0
M  CHG  2   3   1   7  -1
M  END

