
     RDKit          3D

 24 25  0  0  0  0  0  0  0  0999 V2000
    0.7277   -0.9027   -0.9312 Cl  0  0  0  0  0  0  0  0  0  0  0  0
    2.3717   -0.3297   -0.3542 C   0  0  1  0  0  0  0  0  0  0  0  0
    3.3013   -1.5393   -0.1259 C   0  0  0  0  0  0  0  0  0  0  0  0
    2.8567   -2.4780    0.9720 C   0  0  0  0  0  0  0  0  0  0  0  0
    2.0882   -3.6192    0.7072 C   0  0  0  0  0  0  0  0  0  0  0  0
    1.6974   -4.4402    1.7692 C   0  0  0  0  0  0  0  0  0  0  0  0
    2.0141   -4.2024    3.0443 N   0  0  0  0  0  0  0  0  0  0  0  0
    2.7457   -3.1155    3.3009 C   0  0  0  0  0  0  0  0  0  0  0  0
    3.1882   -2.2320    2.3122 C   0  0  0  0  0  0  0  0  0  0  0  0
    2.9360    0.6683   -1.3208 C   0  0  0  0  0  0  0  0  0  0  0  0
    3.2011    0.5257   -2.6627 C   0  0  0  0  0  0  0  0  0  0  0  0
    3.7882    1.6824   -3.2546 C   0  0  0  0  0  0  0  0  0  0  0  0
    3.9630    2.6957   -2.3444 C   0  0  0  0  0  0  0  0  0  0  0  0
    4.6978    4.3971   -2.6647 Br  0  0  0  0  0  0  0  0  0  0  0  0
    3.4047    2.2535   -0.7613 S   0  0  0  0  0  0  0  0  0  0  0  0
    2.1680    0.1573    0.6095 H   0  0  0  0  0  0  0  0  0  0  0  0
    4.2920   -1.1253    0.1248 H   0  0  0  0  0  0  0  0  0  0  0  0
    3.4119   -2.0810   -1.0778 H   0  0  0  0  0  0  0  0  0  0  0  0
    1.7911   -3.8653   -0.3146 H   0  0  0  0  0  0  0  0  0  0  0  0
    1.0970   -5.3369    1.5732 H   0  0  0  0  0  0  0  0  0  0  0  0
    3.0027   -2.9341    4.3517 H   0  0  0  0  0  0  0  0  0  0  0  0
    3.7949   -1.3647    2.5891 H   0  0  0  0  0  0  0  0  0  0  0  0
    2.9589   -0.3799   -3.2213 H   0  0  0  0  0  0  0  0  0  0  0  0
    4.0664    1.7662   -4.3053 H   0  0  0  0  0  0  0  0  0  0  0  0
  1  2  1  0
  2  3  1  0
  2 10  1  0
  2 16  1  1
  3  4  1  0
  3 17  1  0
  3 18  1  0
  4  5  2  0
  4  9  1  0
  5  6  1  0
  5 19  1  0
  6  7  2  0
  6 20  1  0
  7  8  1  0
  8  9  2  0
  8 21  1  0
  9 22  1  0
 10 11  2  0
 10 15  1  0
 11 12  1  0
 11 23  1  0
 12 13  2  0
 12 24  1  0
 13 14  1  0
 13 15  1  0
M  END

