
     RDKit          3D

 16 15  0  0  0  0  0  0  0  0999 V2000
    0.9229    0.0507    0.1752 C   0  0  0  0  0  0  0  0  0  0  0  0
    2.4437   -0.0643    0.1365 C   0  0  0  0  0  0  0  0  0  0  0  0
    3.1919    1.4840    0.8139 S   0  0  0  0  0  0  0  0  0  0  0  0
    5.2316    1.0791    0.7613 S   0  0  0  0  0  0  0  0  0  0  0  0
    5.7273    1.6622   -0.9210 C   0  0  0  0  0  0  0  0  0  0  0  0
    7.2343    1.4954   -1.0897 C   0  0  0  0  0  0  0  0  0  0  0  0
    0.4630   -0.8681   -0.2229 H   0  0  0  0  0  0  0  0  0  0  0  0
    0.5662    0.8969   -0.4335 H   0  0  0  0  0  0  0  0  0  0  0  0
    0.5568    0.1935    1.2043 H   0  0  0  0  0  0  0  0  0  0  0  0
    2.8039   -0.2091   -0.8935 H   0  0  0  0  0  0  0  0  0  0  0  0
    2.7989   -0.9078    0.7468 H   0  0  0  0  0  0  0  0  0  0  0  0
    5.4259    2.7159   -1.0170 H   0  0  0  0  0  0  0  0  0  0  0  0
    5.1772    1.0771   -1.6737 H   0  0  0  0  0  0  0  0  0  0  0  0
    7.7898    2.0817   -0.3406 H   0  0  0  0  0  0  0  0  0  0  0  0
    7.5447    1.8421   -2.0886 H   0  0  0  0  0  0  0  0  0  0  0  0
    7.5376    0.4410   -0.9899 H   0  0  0  0  0  0  0  0  0  0  0  0
  1  2  1  0
  1  7  1  0
  1  8  1  0
  1  9  1  0
  2  3  1  0
  2 10  1  0
  2 11  1  0
  3  4  1  0
  4  5  1  0
  5  6  1  0
  5 12  1  0
  5 13  1  0
  6 14  1  0
  6 15  1  0
  6 16  1  0
M  END

