
     RDKit          3D

 15 14  0  0  0  0  0  0  0  0999 V2000
    1.0239   -0.0550   -0.1148 C   0  0  0  0  0  0  0  0  0  0  0  0
    2.5425    0.0875   -0.0599 C   0  0  0  0  0  0  0  0  0  0  0  0
    3.0058    1.7419    0.5758 S   0  0  0  0  0  0  0  0  0  0  0  0
    4.8312    1.5978    0.5206 C   0  0  0  0  0  0  0  0  0  0  0  0
    5.4817    2.8864    1.0164 C   0  0  0  0  0  0  0  0  0  0  0  0
    0.7457   -1.0506   -0.4974 H   0  0  0  0  0  0  0  0  0  0  0  0
    0.5755    0.7014   -0.7787 H   0  0  0  0  0  0  0  0  0  0  0  0
    0.5753    0.0623    0.8846 H   0  0  0  0  0  0  0  0  0  0  0  0
    2.9800   -0.0448   -1.0642 H   0  0  0  0  0  0  0  0  0  0  0  0
    2.9798   -0.6833    0.5977 H   0  0  0  0  0  0  0  0  0  0  0  0
    5.1414    1.3820   -0.5162 H   0  0  0  0  0  0  0  0  0  0  0  0
    5.1411    0.7427    1.1454 H   0  0  0  0  0  0  0  0  0  0  0  0
    5.1902    3.7466    0.3928 H   0  0  0  0  0  0  0  0  0  0  0  0
    6.5800    2.7991    0.9830 H   0  0  0  0  0  0  0  0  0  0  0  0
    5.1900    3.1068    2.0558 H   0  0  0  0  0  0  0  0  0  0  0  0
  1  2  1  0
  1  6  1  0
  1  7  1  0
  1  8  1  0
  2  3  1  0
  2  9  1  0
  2 10  1  0
  3  4  1  0
  4  5  1  0
  4 11  1  0
  4 12  1  0
  5 13  1  0
  5 14  1  0
  5 15  1  0
M  END

