
     RDKit          3D

 33 35  0  0  0  0  0  0  0  0999 V2000
    1.1544   -0.2849   -0.2778 N   0  0  0  0  0  0  0  0  0  0  0  0
    2.3050   -0.1279   -0.2410 C   0  0  0  0  0  0  0  0  0  0  0  0
    3.7223    0.0529   -0.1959 C   0  0  0  0  0  0  0  0  0  0  0  0
    4.3297    1.3060   -0.1072 C   0  0  0  0  0  0  0  0  0  0  0  0
    3.5589    2.5780   -0.1201 C   0  0  0  0  0  0  0  0  0  0  0  0
    3.8814    3.6040    0.7880 C   0  0  0  0  0  0  0  0  0  0  0  0
    3.1852    4.8125    0.7918 C   0  0  0  0  0  0  0  0  0  0  0  0
    2.1586    5.0128   -0.1356 C   0  0  0  0  0  0  0  0  0  0  0  0
    1.2088    6.6624   -0.1460 Br  0  0  0  0  0  0  0  0  0  0  0  0
    1.8238    4.0146   -1.0545 C   0  0  0  0  0  0  0  0  0  0  0  0
    2.5189    2.8051   -1.0395 C   0  0  0  0  0  0  0  0  0  0  0  0
    5.7522    1.3831   -0.0080 C   0  0  0  0  0  0  0  0  0  0  0  0
    6.5255    0.2414   -0.0014 C   0  0  0  0  0  0  0  0  0  0  0  0
    8.0039    0.2516    0.0595 C   0  0  0  0  0  0  0  0  0  0  0  0
    8.6854    1.2434    0.7892 C   0  0  0  0  0  0  0  0  0  0  0  0
   10.0778    1.2655    0.8471 C   0  0  0  0  0  0  0  0  0  0  0  0
   10.8114    0.2861    0.1687 C   0  0  0  0  0  0  0  0  0  0  0  0
   12.7105    0.3093    0.2455 Br  0  0  0  0  0  0  0  0  0  0  0  0
   10.1592   -0.7099   -0.5638 C   0  0  0  0  0  0  0  0  0  0  0  0
    8.7652   -0.7226   -0.6137 C   0  0  0  0  0  0  0  0  0  0  0  0
    5.9001   -0.9674   -0.0884 N   0  0  0  0  0  0  0  0  0  0  0  0
    6.4413   -1.8260   -0.0265 H   0  0  0  0  0  0  0  0  0  0  0  0
    4.5129   -1.1861   -0.1926 C   0  0  0  0  0  0  0  0  0  0  0  0
    4.0791   -2.3202   -0.2551 O   0  0  0  0  0  0  0  0  0  0  0  0
    4.6727    3.4483    1.5247 H   0  0  0  0  0  0  0  0  0  0  0  0
    3.4353    5.5924    1.5126 H   0  0  0  0  0  0  0  0  0  0  0  0
    1.0248    4.1792   -1.7789 H   0  0  0  0  0  0  0  0  0  0  0  0
    2.2528    2.0372   -1.7668 H   0  0  0  0  0  0  0  0  0  0  0  0
    6.2373    2.3568   -0.0113 H   0  0  0  0  0  0  0  0  0  0  0  0
    8.1200    1.9953    1.3429 H   0  0  0  0  0  0  0  0  0  0  0  0
   10.5927    2.0351    1.4241 H   0  0  0  0  0  0  0  0  0  0  0  0
   10.7360   -1.4653   -1.0996 H   0  0  0  0  0  0  0  0  0  0  0  0
    8.2722   -1.4886   -1.2174 H   0  0  0  0  0  0  0  0  0  0  0  0
  1  2  3  0
  2  3  1  0
  3  4  2  0
  3 23  1  0
  4  5  1  0
  4 12  1  0
  5  6  2  0
  5 11  1  0
  6  7  1  0
  6 25  1  0
  7  8  2  0
  7 26  1  0
  8  9  1  0
  8 10  1  0
 10 11  2  0
 10 27  1  0
 11 28  1  0
 12 13  2  0
 12 29  1  0
 13 14  1  0
 13 21  1  0
 14 15  2  0
 14 20  1  0
 15 16  1  0
 15 30  1  0
 16 17  2  0
 16 31  1  0
 17 18  1  0
 17 19  1  0
 19 20  2  0
 19 32  1  0
 20 33  1  0
 21 22  1  0
 21 23  1  0
 23 24  2  0
M  END

