
     RDKit          3D

 29 30  0  0  0  0  0  0  0  0999 V2000
    2.1251   -1.1890    0.7763 O   0  0  0  0  0  0  0  0  0  0  0  0
    2.6129   -0.3038    0.0990 C   0  0  0  0  0  0  0  0  0  0  0  0
    2.9380   -0.5549   -1.3509 C   0  0  0  0  0  0  0  0  0  0  0  0
    3.3922    0.4410   -2.2305 C   0  0  0  0  0  0  0  0  0  0  0  0
    3.6970    0.1092   -3.5534 C   0  0  0  0  0  0  0  0  0  0  0  0
    3.5483   -1.2001   -4.0083 C   0  0  0  0  0  0  0  0  0  0  0  0
    3.0886   -2.1858   -3.1279 C   0  0  0  0  0  0  0  0  0  0  0  0
    2.9952   -3.4591   -3.6785 O   0  0  0  0  0  0  0  0  0  0  0  0
    2.2647   -4.4423   -3.1069 C   0  0  1  0  0  0  0  0  0  0  0  0
    1.0005   -4.0683   -2.8743 F   0  0  0  0  0  0  0  0  0  0  0  0
    2.2581   -5.4720   -3.9422 F   0  0  0  0  0  0  0  0  0  0  0  0
    2.7824   -4.8535   -1.9384 F   0  0  0  0  0  0  0  0  0  0  0  0
    2.7841   -1.8774   -1.8056 C   0  0  0  0  0  0  0  0  0  0  0  0
    2.9107    1.0981    0.6720 C   0  0  1  0  0  0  0  0  0  0  0  0
    2.1206    2.0558   -0.0316 O   0  0  0  0  0  0  0  0  0  0  0  0
    2.7668    1.2911    2.1690 C   0  0  1  0  0  0  0  0  0  0  0  0
    1.6286    0.7423    3.0035 C   0  0  0  0  0  0  0  0  0  0  0  0
    3.0379    0.2566    3.2311 C   0  0  0  0  0  0  0  0  0  0  0  0
    3.4713    1.4749   -1.8974 H   0  0  0  0  0  0  0  0  0  0  0  0
    4.0458    0.8818   -4.2425 H   0  0  0  0  0  0  0  0  0  0  0  0
    3.7782   -1.4787   -5.0383 H   0  0  0  0  0  0  0  0  0  0  0  0
    2.4333   -2.6243   -1.0950 H   0  0  0  0  0  0  0  0  0  0  0  0
    3.9529    1.3369    0.3969 H   0  0  0  0  0  0  0  0  0  0  0  0
    1.2160    1.9863    0.3062 H   0  0  0  0  0  0  0  0  0  0  0  0
    3.0712    2.3110    2.4300 H   0  0  0  0  0  0  0  0  0  0  0  0
    0.9395    0.0333    2.5411 H   0  0  0  0  0  0  0  0  0  0  0  0
    1.1791    1.4124    3.7422 H   0  0  0  0  0  0  0  0  0  0  0  0
    3.2605   -0.7638    2.9154 H   0  0  0  0  0  0  0  0  0  0  0  0
    3.5693    0.5889    4.1275 H   0  0  0  0  0  0  0  0  0  0  0  0
  1  2  2  0
  2  3  1  0
  2 14  1  0
  3  4  2  0
  3 13  1  0
  4  5  1  0
  4 19  1  0
  5  6  2  0
  5 20  1  0
  6  7  1  0
  6 21  1  0
  7  8  1  0
  7 13  2  0
  8  9  1  0
  9 10  1  1
  9 11  1  0
  9 12  1  0
 13 22  1  0
 14 15  1  0
 14 16  1  0
 14 23  1  6
 15 24  1  0
 16 17  1  0
 16 18  1  0
 16 25  1  1
 17 18  1  0
 17 26  1  0
 17 27  1  0
 18 28  1  0
 18 29  1  0
M  END

