
     RDKit          3D

 36 37  0  0  0  0  0  0  0  0999 V2000
    6.1678    0.9607    5.0054 O   0  0  0  0  0  0  0  0  0  0  0  0
    5.4431    1.0640    4.0630 C   0  0  0  0  0  0  0  0  0  0  0  0
    4.4584    1.9570    3.9660 O   0  0  0  0  0  0  0  0  0  0  0  0
    5.5896    0.1213    2.8282 C   0  0  1  0  0  0  0  0  0  0  0  0
    5.5239   -1.1567    3.2408 F   0  0  0  0  0  0  0  0  0  0  0  0
    4.5625    0.3476    1.9599 F   0  0  0  0  0  0  0  0  0  0  0  0
    6.9353    0.3486    2.0919 C   0  0  1  0  0  0  0  0  0  0  0  0
    7.0604    1.6807    1.8902 F   0  0  0  0  0  0  0  0  0  0  0  0
    7.9306   -0.0572    2.9024 F   0  0  0  0  0  0  0  0  0  0  0  0
    7.0949   -0.3633    0.7119 C   0  0  1  0  0  0  0  0  0  0  0  0
    6.2277    0.2064   -0.1414 F   0  0  0  0  0  0  0  0  0  0  0  0
    8.3488   -0.0733    0.2748 F   0  0  0  0  0  0  0  0  0  0  0  0
    6.8413   -1.9111    0.7155 C   0  0  0  0  0  0  0  0  0  0  0  0
    5.7326   -2.2577    0.3736 O   0  0  0  0  0  0  0  0  0  0  0  0
    7.9088   -2.8696    1.1000 C   0  0  0  0  0  0  0  0  0  0  0  0
    9.1930   -2.5189    1.5605 C   0  0  0  0  0  0  0  0  0  0  0  0
   10.1116   -3.5075    1.9039 C   0  0  0  0  0  0  0  0  0  0  0  0
    9.7957   -4.8756    1.7978 C   0  0  0  0  0  0  0  0  0  0  0  0
   10.7831   -5.9227    2.1632 C   0  0  0  0  0  0  0  0  0  0  0  0
   11.6799   -5.7312    3.2322 C   0  0  0  0  0  0  0  0  0  0  0  0
   12.6060   -6.7171    3.5768 C   0  0  0  0  0  0  0  0  0  0  0  0
   12.6603   -7.9147    2.8573 C   0  0  0  0  0  0  0  0  0  0  0  0
   11.7784   -8.1190    1.7918 C   0  0  0  0  0  0  0  0  0  0  0  0
   10.8485   -7.1356    1.4504 C   0  0  0  0  0  0  0  0  0  0  0  0
    8.5078   -5.2181    1.3336 C   0  0  0  0  0  0  0  0  0  0  0  0
    7.5850   -4.2382    0.9951 C   0  0  0  0  0  0  0  0  0  0  0  0
    3.9828    1.8469    3.1257 H   0  0  0  0  0  0  0  0  0  0  0  0
    9.4865   -1.4759    1.6534 H   0  0  0  0  0  0  0  0  0  0  0  0
   11.1073   -3.2087    2.2374 H   0  0  0  0  0  0  0  0  0  0  0  0
   11.6330   -4.8109    3.8188 H   0  0  0  0  0  0  0  0  0  0  0  0
   13.2845   -6.5514    4.4174 H   0  0  0  0  0  0  0  0  0  0  0  0
   13.3868   -8.6857    3.1259 H   0  0  0  0  0  0  0  0  0  0  0  0
   11.8185   -9.0481    1.2175 H   0  0  0  0  0  0  0  0  0  0  0  0
   10.1815   -7.3000    0.6011 H   0  0  0  0  0  0  0  0  0  0  0  0
    8.2205   -6.2693    1.2654 H   0  0  0  0  0  0  0  0  0  0  0  0
    6.5856   -4.5083    0.6499 H   0  0  0  0  0  0  0  0  0  0  0  0
  1  2  2  0
  2  3  1  0
  2  4  1  0
  3 27  1  0
  4  5  1  1
  4  6  1  0
  4  7  1  0
  7  8  1  6
  7  9  1  0
  7 10  1  0
 10 11  1  6
 10 12  1  0
 10 13  1  0
 13 14  2  0
 13 15  1  0
 15 16  2  0
 15 26  1  0
 16 17  1  0
 16 28  1  0
 17 18  2  0
 17 29  1  0
 18 19  1  0
 18 25  1  0
 19 20  2  0
 19 24  1  0
 20 21  1  0
 20 30  1  0
 21 22  2  0
 21 31  1  0
 22 23  1  0
 22 32  1  0
 23 24  2  0
 23 33  1  0
 24 34  1  0
 25 26  2  0
 25 35  1  0
 26 36  1  0
M  END

