
     RDKit          3D

 62 64  0  0  0  0  0  0  0  0999 V2000
    7.8599   -0.8799    1.4332 C   0  0  0  0  0  0  0  0  0  0  0  0
    6.6084   -1.2073    0.8244 O   0  0  0  0  0  0  0  0  0  0  0  0
    5.8939   -0.1883    0.3408 C   0  0  0  0  0  0  0  0  0  0  0  0
    6.2238    0.9721    0.4218 O   0  0  0  0  0  0  0  0  0  0  0  0
    4.6291   -0.6738   -0.3638 C   0  0  1  0  0  0  0  0  0  0  0  0
    3.7277    0.4505   -0.4749 N   0  0  0  0  0  0  0  0  0  0  0  0
    2.3786    0.2744   -0.5706 C   0  0  0  0  0  0  0  0  0  0  0  0
    1.8338   -0.8126   -0.5667 O   0  0  0  0  0  0  0  0  0  0  0  0
    1.7668    1.4752   -0.6616 O   0  0  0  0  0  0  0  0  0  0  0  0
    0.3125    1.5935   -0.7729 C   0  0  1  0  0  0  0  0  0  0  0  0
   -0.3604    1.0129    0.4759 C   0  0  0  0  0  0  0  0  0  0  0  0
    0.0988    3.1069   -0.8482 C   0  0  0  0  0  0  0  0  0  0  0  0
   -0.1733    0.9126   -2.0573 C   0  0  0  0  0  0  0  0  0  0  0  0
    4.9973   -1.3125   -1.7069 C   0  0  0  0  0  0  0  0  0  0  0  0
    5.6606   -0.5353   -2.6841 C   0  0  0  0  0  0  0  0  0  0  0  0
    6.0123   -1.0584   -3.9319 C   0  0  0  0  0  0  0  0  0  0  0  0
    5.6715   -2.3875   -4.1527 C   0  0  0  0  0  0  0  0  0  0  0  0
    5.8791   -3.1573   -5.2554 O   0  0  0  0  0  0  0  0  0  0  0  0
    5.3356   -4.3944   -4.9333 C   0  0  0  0  0  0  0  0  0  0  0  0
    5.4348   -5.4109   -5.9738 C   0  0  0  0  0  0  0  0  0  0  0  0
    6.0638   -5.0776   -7.1981 C   0  0  0  0  0  0  0  0  0  0  0  0
    6.1974   -5.9849   -8.2392 C   0  0  0  0  0  0  0  0  0  0  0  0
    6.7885   -5.7270   -9.4343 O   0  0  0  0  0  0  0  0  0  0  0  0
    7.3152   -4.4423   -9.6630 C   0  0  0  0  0  0  0  0  0  0  0  0
    5.6826   -7.2987   -8.0689 C   0  0  0  0  0  0  0  0  0  0  0  0
    5.8420   -8.1351   -9.1157 O   0  0  0  0  0  0  0  0  0  0  0  0
    5.3594   -9.4562   -9.0306 C   0  0  0  0  0  0  0  0  0  0  0  0
    5.0586   -7.6467   -6.8684 C   0  0  0  0  0  0  0  0  0  0  0  0
    4.9264   -6.7211   -5.8152 C   0  0  0  0  0  0  0  0  0  0  0  0
    4.3290   -7.0312   -4.6472 O   0  0  0  0  0  0  0  0  0  0  0  0
    3.7954   -8.3159   -4.4372 C   0  0  0  0  0  0  0  0  0  0  0  0
    4.8188   -4.4480   -3.7412 N   0  0  0  0  0  0  0  0  0  0  0  0
    5.0108   -3.1866   -3.2037 C   0  0  0  0  0  0  0  0  0  0  0  0
    4.6626   -2.6458   -1.9595 C   0  0  0  0  0  0  0  0  0  0  0  0
    8.2950   -1.8307    1.7636 H   0  0  0  0  0  0  0  0  0  0  0  0
    7.7117   -0.2071    2.2911 H   0  0  0  0  0  0  0  0  0  0  0  0
    8.5258   -0.3856    0.7100 H   0  0  0  0  0  0  0  0  0  0  0  0
    4.1609   -1.4502    0.2589 H   0  0  0  0  0  0  0  0  0  0  0  0
    4.1191    1.3846   -0.4148 H   0  0  0  0  0  0  0  0  0  0  0  0
    0.0381    1.4935    1.3834 H   0  0  0  0  0  0  0  0  0  0  0  0
   -0.1929   -0.0693    0.5454 H   0  0  0  0  0  0  0  0  0  0  0  0
   -1.4446    1.2029    0.4373 H   0  0  0  0  0  0  0  0  0  0  0  0
    0.4892    3.5984    0.0559 H   0  0  0  0  0  0  0  0  0  0  0  0
   -0.9737    3.3377   -0.9366 H   0  0  0  0  0  0  0  0  0  0  0  0
    0.6204    3.5280   -1.7211 H   0  0  0  0  0  0  0  0  0  0  0  0
   -0.0012   -0.1704   -2.0179 H   0  0  0  0  0  0  0  0  0  0  0  0
    0.3557    1.3238   -2.9314 H   0  0  0  0  0  0  0  0  0  0  0  0
   -1.2508    1.0970   -2.1920 H   0  0  0  0  0  0  0  0  0  0  0  0
    5.9026    0.5066   -2.4587 H   0  0  0  0  0  0  0  0  0  0  0  0
    6.5234   -0.4581   -4.6864 H   0  0  0  0  0  0  0  0  0  0  0  0
    6.4492   -4.0665   -7.3058 H   0  0  0  0  0  0  0  0  0  0  0  0
    7.7387   -4.4529  -10.6765 H   0  0  0  0  0  0  0  0  0  0  0  0
    8.1160   -4.1894   -8.9436 H   0  0  0  0  0  0  0  0  0  0  0  0
    6.5356   -3.6600   -9.6095 H   0  0  0  0  0  0  0  0  0  0  0  0
    5.6005   -9.9382   -9.9874 H   0  0  0  0  0  0  0  0  0  0  0  0
    4.2648   -9.4852   -8.8815 H   0  0  0  0  0  0  0  0  0  0  0  0
    5.8455  -10.0198   -8.2138 H   0  0  0  0  0  0  0  0  0  0  0  0
    4.6673   -8.6526   -6.7455 H   0  0  0  0  0  0  0  0  0  0  0  0
    3.3676   -8.3094   -3.4260 H   0  0  0  0  0  0  0  0  0  0  0  0
    4.5718   -9.1010   -4.4908 H   0  0  0  0  0  0  0  0  0  0  0  0
    2.9952   -8.5553   -5.1612 H   0  0  0  0  0  0  0  0  0  0  0  0
    4.1335   -3.2489   -1.2197 H   0  0  0  0  0  0  0  0  0  0  0  0
  1  2  1  0
  1 35  1  0
  1 36  1  0
  1 37  1  0
  2  3  1  0
  3  4  2  0
  3  5  1  0
  5  6  1  0
  5 14  1  0
  5 38  1  1
  6  7  1  0
  6 39  1  0
  7  8  2  0
  7  9  1  0
 10  9  1  1
 10 11  1  0
 10 12  1  0
 10 13  1  0
 11 40  1  0
 11 41  1  0
 11 42  1  0
 12 43  1  0
 12 44  1  0
 12 45  1  0
 13 46  1  0
 13 47  1  0
 13 48  1  0
 14 15  2  0
 14 34  1  0
 15 16  1  0
 15 49  1  0
 16 17  2  0
 16 50  1  0
 17 18  1  0
 17 33  1  0
 18 19  1  0
 19 20  1  0
 19 32  2  0
 20 21  2  0
 20 29  1  0
 21 22  1  0
 21 51  1  0
 22 23  1  0
 22 25  2  0
 23 24  1  0
 24 52  1  0
 24 53  1  0
 24 54  1  0
 25 26  1  0
 25 28  1  0
 26 27  1  0
 27 55  1  0
 27 56  1  0
 27 57  1  0
 28 29  2  0
 28 58  1  0
 29 30  1  0
 30 31  1  0
 31 59  1  0
 31 60  1  0
 31 61  1  0
 32 33  1  0
 33 34  2  0
 34 62  1  0
M  END

