
     RDKit          3D

 38 40  0  0  0  0  0  0  0  0999 V2000
    0.9421   -0.3156    0.1008 C   0  0  0  0  0  0  0  0  0  0  0  0
    2.4310   -0.1064    0.0195 C   0  0  0  0  0  0  0  0  0  0  0  0
    2.9957    1.1900   -0.0180 C   0  0  0  0  0  0  0  0  0  0  0  0
    4.3740    1.3292   -0.0869 C   0  0  0  0  0  0  0  0  0  0  0  0
    5.1850    0.1836   -0.1189 C   0  0  0  0  0  0  0  0  0  0  0  0
    6.6622    0.2710   -0.1917 C   0  0  0  0  0  0  0  0  0  0  0  0
    7.2294    1.3706   -0.2293 O   0  0  0  0  0  0  0  0  0  0  0  0
    7.3495   -1.0228   -0.2144 C   0  0  0  0  0  0  0  0  0  0  0  0
    8.8454   -1.1980   -0.2879 C   0  0  0  0  0  0  0  0  0  0  0  0
    9.3482   -2.3171   -0.3350 O   0  0  0  0  0  0  0  0  0  0  0  0
    9.5604   -0.0449   -0.2871 N   0  0  0  0  0  0  0  0  0  0  0  0
   11.0068   -0.0296   -0.3769 C   0  0  0  0  0  0  0  0  0  0  0  0
   11.5112    0.1433   -1.8172 C   0  0  1  0  0  0  0  0  0  0  0  0
   11.1020    1.4624   -2.4870 C   0  0  0  0  0  0  0  0  0  0  0  0
   12.0951    1.7310   -3.6199 C   0  0  0  0  0  0  0  0  0  0  0  0
   13.4937    1.5480   -3.0233 C   0  0  0  0  0  0  0  0  0  0  0  0
   13.3729    0.1123   -1.8671 S   0  0  0  0  0  0  0  0  0  0  0  0
    6.6209   -2.1853   -0.1738 C   0  0  0  0  0  0  0  0  0  0  0  0
    5.2697   -2.2147   -0.1074 N   0  0  0  0  0  0  0  0  0  0  0  0
    4.7598   -3.0923   -0.0773 H   0  0  0  0  0  0  0  0  0  0  0  0
    4.5146   -1.0582   -0.0774 C   0  0  0  0  0  0  0  0  0  0  0  0
    3.1894   -1.2034   -0.0110 N   0  0  0  0  0  0  0  0  0  0  0  0
    0.3892    0.6330    0.0618 H   0  0  0  0  0  0  0  0  0  0  0  0
    0.6837   -0.8361    1.0374 H   0  0  0  0  0  0  0  0  0  0  0  0
    0.6041   -0.9614   -0.7249 H   0  0  0  0  0  0  0  0  0  0  0  0
    2.3450    2.0663    0.0075 H   0  0  0  0  0  0  0  0  0  0  0  0
    4.8623    2.3057   -0.1178 H   0  0  0  0  0  0  0  0  0  0  0  0
    9.0169    0.8224   -0.2692 H   0  0  0  0  0  0  0  0  0  0  0  0
   11.3774   -0.9802    0.0322 H   0  0  0  0  0  0  0  0  0  0  0  0
   11.4023    0.7894    0.2463 H   0  0  0  0  0  0  0  0  0  0  0  0
   11.1501   -0.7105   -2.4129 H   0  0  0  0  0  0  0  0  0  0  0  0
   11.1580    2.2809   -1.7465 H   0  0  0  0  0  0  0  0  0  0  0  0
   10.0603    1.4161   -2.8433 H   0  0  0  0  0  0  0  0  0  0  0  0
   11.9719    2.7381   -4.0521 H   0  0  0  0  0  0  0  0  0  0  0  0
   11.9394    1.0017   -4.4327 H   0  0  0  0  0  0  0  0  0  0  0  0
   13.8111    2.4427   -2.4642 H   0  0  0  0  0  0  0  0  0  0  0  0
   14.2580    1.3304   -3.7839 H   0  0  0  0  0  0  0  0  0  0  0  0
    7.1506   -3.1406   -0.1958 H   0  0  0  0  0  0  0  0  0  0  0  0
  1  2  1  0
  1 23  1  0
  1 24  1  0
  1 25  1  0
  2  3  2  0
  2 22  1  0
  3  4  1  0
  3 26  1  0
  4  5  2  0
  4 27  1  0
  5  6  1  0
  5 21  1  0
  6  7  2  0
  6  8  1  0
  8  9  1  0
  8 18  2  0
  9 10  2  0
  9 11  1  0
 11 12  1  0
 11 28  1  0
 12 13  1  0
 12 29  1  0
 12 30  1  0
 13 14  1  0
 13 17  1  0
 13 31  1  6
 14 15  1  0
 14 32  1  0
 14 33  1  0
 15 16  1  0
 15 34  1  0
 15 35  1  0
 16 17  1  0
 16 36  1  0
 16 37  1  0
 18 19  1  0
 18 38  1  0
 19 20  1  0
 19 21  1  0
 21 22  2  0
M  END

