
     RDKit          3D

 40 41  0  0  0  0  0  0  0  0999 V2000
    0.7476    0.9697   -0.3440 C   0  0  0  0  0  0  0  0  0  0  0  0
    2.1529    0.7306   -0.0550 N   0  0  0  0  0  0  0  0  0  0  0  0
    2.5158    0.6496    1.3405 C   0  0  0  0  0  0  0  0  0  0  0  0
    1.6292   -0.3347    2.1289 C   0  0  0  0  0  0  0  0  0  0  0  0
    1.0910   -1.2952    1.6049 O   0  0  0  0  0  0  0  0  0  0  0  0
    1.5411   -0.0492    3.4580 N   0  0  0  0  0  0  0  0  0  0  0  0
    0.9156   -0.9300    4.4231 C   0  0  0  0  0  0  0  0  0  0  0  0
    1.8374   -1.1605    5.6179 C   0  0  1  0  0  0  0  0  0  0  0  0
    2.2169    0.0946    6.1776 O   0  0  0  0  0  0  0  0  0  0  0  0
    1.3773   -2.1847    6.6932 C   0  0  0  0  0  0  0  0  0  0  0  0
    2.8123   -2.7740    6.7122 C   0  0  0  0  0  0  0  0  0  0  0  0
    3.1221   -2.0006    5.4037 C   0  0  0  0  0  0  0  0  0  0  0  0
    3.0049    0.3315   -1.0654 C   0  0  0  0  0  0  0  0  0  0  0  0
    2.4913   -0.3243   -2.2142 C   0  0  0  0  0  0  0  0  0  0  0  0
    3.3198   -0.8108   -3.2176 C   0  0  0  0  0  0  0  0  0  0  0  0
    4.7132   -0.6823   -3.1302 C   0  0  0  0  0  0  0  0  0  0  0  0
    5.2513   -0.0153   -2.0383 C   0  0  0  0  0  0  0  0  0  0  0  0
    4.4177    0.5204   -1.0460 C   0  0  0  0  0  0  0  0  0  0  0  0
    5.0854    1.4020   -0.0779 N   0  0  0  0  0  0  0  0  0  0  0  0
    4.4665    2.3703    0.3457 O   0  0  0  0  0  0  0  0  0  0  0  0
    6.2473    1.1512    0.2132 O   0  0  0  0  0  0  0  0  0  0  0  0
    0.3352    1.6289    0.4359 H   0  0  0  0  0  0  0  0  0  0  0  0
    0.1459    0.0455   -0.3559 H   0  0  0  0  0  0  0  0  0  0  0  0
    0.6426    1.4914   -1.3066 H   0  0  0  0  0  0  0  0  0  0  0  0
    2.5216    1.6455    1.8199 H   0  0  0  0  0  0  0  0  0  0  0  0
    3.5365    0.2545    1.4385 H   0  0  0  0  0  0  0  0  0  0  0  0
    2.0514    0.7396    3.8431 H   0  0  0  0  0  0  0  0  0  0  0  0
    0.6709   -1.8701    3.9094 H   0  0  0  0  0  0  0  0  0  0  0  0
   -0.0402   -0.4993    4.7857 H   0  0  0  0  0  0  0  0  0  0  0  0
    1.4442    0.4694    6.6246 H   0  0  0  0  0  0  0  0  0  0  0  0
    0.6281   -2.8914    6.3031 H   0  0  0  0  0  0  0  0  0  0  0  0
    0.9959   -1.7486    7.6305 H   0  0  0  0  0  0  0  0  0  0  0  0
    2.8931   -3.8700    6.6706 H   0  0  0  0  0  0  0  0  0  0  0  0
    3.4041   -2.4105    7.5644 H   0  0  0  0  0  0  0  0  0  0  0  0
    3.0617   -2.6312    4.5041 H   0  0  0  0  0  0  0  0  0  0  0  0
    4.0509   -1.4135    5.3736 H   0  0  0  0  0  0  0  0  0  0  0  0
    1.4183   -0.4988   -2.2835 H   0  0  0  0  0  0  0  0  0  0  0  0
    2.8710   -1.3252   -4.0715 H   0  0  0  0  0  0  0  0  0  0  0  0
    5.3644   -1.0815   -3.9099 H   0  0  0  0  0  0  0  0  0  0  0  0
    6.3249    0.1454   -1.9393 H   0  0  0  0  0  0  0  0  0  0  0  0
  1  2  1  0
  1 22  1  0
  1 23  1  0
  1 24  1  0
  2  3  1  0
  2 13  1  0
  3  4  1  0
  3 25  1  0
  3 26  1  0
  4  5  2  0
  4  6  1  0
  6  7  1  0
  6 27  1  0
  7  8  1  0
  7 28  1  0
  7 29  1  0
  8  9  1  1
  8 10  1  0
  8 12  1  0
  9 30  1  0
 10 11  1  0
 10 31  1  0
 10 32  1  0
 11 12  1  0
 11 33  1  0
 11 34  1  0
 12 35  1  0
 12 36  1  0
 13 14  2  0
 13 18  1  0
 14 15  1  0
 14 37  1  0
 15 16  2  0
 15 38  1  0
 16 17  1  0
 16 39  1  0
 17 18  2  0
 17 40  1  0
 18 19  1  0
 19 20  2  0
 19 21  1  0
M  CHG  2  19   1  21  -1
M  END

