
     RDKit          3D

 33 35  0  0  0  0  0  0  0  0999 V2000
    1.0303    0.4133   -0.0982 C   0  0  0  0  0  0  0  0  0  0  0  0
    2.5134    0.2014   -0.0365 C   0  0  0  0  0  0  0  0  0  0  0  0
    3.5784    1.1544    0.0055 C   0  0  0  0  0  0  0  0  0  0  0  0
    3.5057    2.6019    0.0054 C   0  0  0  0  0  0  0  0  0  0  0  0
    4.4827    3.5813    0.0496 C   0  0  0  0  0  0  0  0  0  0  0  0
    3.8061    4.8280    0.0199 C   0  0  0  0  0  0  0  0  0  0  0  0
    2.4703    4.5143   -0.0400 C   0  0  0  0  0  0  0  0  0  0  0  0
    1.3133    5.3490   -0.1026 N   0  0  0  0  0  0  0  0  0  0  0  0
    1.5188    6.5581   -0.0831 O   0  0  0  0  0  0  0  0  0  0  0  0
    0.2191    4.8071   -0.1719 O   0  0  0  0  0  0  0  0  0  0  0  0
    2.2786    3.1793   -0.0478 O   0  0  0  0  0  0  0  0  0  0  0  0
    4.7758    0.5731    0.0438 N   0  0  0  0  0  0  0  0  0  0  0  0
    4.5289   -0.7547    0.0545 N   0  0  0  0  0  0  0  0  0  0  0  0
    5.6206   -1.6662    0.0651 C   0  0  0  0  0  0  0  0  0  0  0  0
    5.5353   -2.8911    0.7450 C   0  0  0  0  0  0  0  0  0  0  0  0
    6.6305   -3.7597    0.7409 C   0  0  0  0  0  0  0  0  0  0  0  0
    7.8118   -3.4118    0.0810 C   0  0  0  0  0  0  0  0  0  0  0  0
    7.8957   -2.1806   -0.5786 C   0  0  0  0  0  0  0  0  0  0  0  0
    6.8074   -1.3086   -0.5931 C   0  0  0  0  0  0  0  0  0  0  0  0
    3.1769   -1.0203   -0.0095 C   0  0  0  0  0  0  0  0  0  0  0  0
    2.6591   -2.3070    0.0040 N   0  0  0  0  0  0  0  0  0  0  0  0
    0.7684    1.2916   -0.7034 H   0  0  0  0  0  0  0  0  0  0  0  0
    0.5897    0.5755    0.9009 H   0  0  0  0  0  0  0  0  0  0  0  0
    0.5222   -0.4599   -0.5413 H   0  0  0  0  0  0  0  0  0  0  0  0
    5.5526    3.3980    0.0992 H   0  0  0  0  0  0  0  0  0  0  0  0
    4.2199    5.8322    0.0385 H   0  0  0  0  0  0  0  0  0  0  0  0
    4.6257   -3.1533    1.2857 H   0  0  0  0  0  0  0  0  0  0  0  0
    6.5599   -4.7111    1.2742 H   0  0  0  0  0  0  0  0  0  0  0  0
    8.6657   -4.0933    0.0852 H   0  0  0  0  0  0  0  0  0  0  0  0
    8.8174   -1.8963   -1.0924 H   0  0  0  0  0  0  0  0  0  0  0  0
    6.8591   -0.3439   -1.0976 H   0  0  0  0  0  0  0  0  0  0  0  0
    3.1542   -2.9771   -0.5806 H   0  0  0  0  0  0  0  0  0  0  0  0
    1.6605   -2.3303   -0.1775 H   0  0  0  0  0  0  0  0  0  0  0  0
  1  2  1  0
  1 22  1  0
  1 23  1  0
  1 24  1  0
  2  3  2  0
  2 20  1  0
  3  4  1  0
  3 12  1  0
  4  5  2  0
  4 11  1  0
  5  6  1  0
  5 25  1  0
  6  7  2  0
  6 26  1  0
  7  8  1  0
  7 11  1  0
  8  9  1  0
  8 10  1  0
 12 13  2  0
 13 14  1  0
 13 20  1  0
 14 15  2  0
 14 19  1  0
 15 16  1  0
 15 27  1  0
 16 17  2  0
 16 28  1  0
 17 18  1  0
 17 29  1  0
 18 19  2  0
 18 30  1  0
 19 31  1  0
 20 21  2  0
 21 32  1  0
 21 33  1  0
M  CHG  4   9  -1  10  -1  13   1  21   1
M  END

