
     RDKit          3D

 46 48  0  0  0  0  0  0  0  0999 V2000
    3.7798   -4.6025   -1.8031 C   0  0  0  0  0  0  0  0  0  0  0  0
    2.3814   -5.1278   -1.4656 C   0  0  1  0  0  0  0  0  0  0  0  0
    2.3475   -5.9791   -0.1915 C   0  0  0  0  0  0  0  0  0  0  0  0
    1.3703   -4.0548   -1.4369 N   0  0  0  0  0  0  0  0  0  0  0  0
    0.2283   -4.0443   -2.1990 C   0  0  0  0  0  0  0  0  0  0  0  0
   -0.5020   -2.9927   -1.9457 N   0  0  0  0  0  0  0  0  0  0  0  0
    0.1573   -2.2728   -0.9887 N   0  0  0  0  0  0  0  0  0  0  0  0
    1.2717   -2.9030   -0.6826 C   0  0  0  0  0  0  0  0  0  0  0  0
    2.2771   -2.4033    0.3146 C   0  0  0  0  0  0  0  0  0  0  0  0
    1.7482   -1.2978    1.2342 C   0  0  1  0  0  0  0  0  0  0  0  0
    2.7508   -0.8754    2.3240 C   0  0  0  0  0  0  0  0  0  0  0  0
    2.2239    0.4815    2.7985 C   0  0  0  0  0  0  0  0  0  0  0  0
    1.5913    1.0305    1.5991 N   0  0  0  0  0  0  0  0  0  0  0  0
    1.2762    2.3688    1.5472 C   0  0  0  0  0  0  0  0  0  0  0  0
    1.5086    3.1199    2.4844 O   0  0  0  0  0  0  0  0  0  0  0  0
    0.6892    2.7703    0.3527 N   0  0  0  0  0  0  0  0  0  0  0  0
    0.2598    4.0553   -0.0182 C   0  0  0  0  0  0  0  0  0  0  0  0
    0.4202    5.1975    0.7892 C   0  0  0  0  0  0  0  0  0  0  0  0
   -0.0340    6.4363    0.3298 C   0  0  0  0  0  0  0  0  0  0  0  0
   -0.6473    6.5716   -0.9187 C   0  0  0  0  0  0  0  0  0  0  0  0
   -0.8069    5.4365   -1.7196 C   0  0  0  0  0  0  0  0  0  0  0  0
   -0.3598    4.1927   -1.2763 C   0  0  0  0  0  0  0  0  0  0  0  0
    1.4191    0.0382    0.5407 C   0  0  0  0  0  0  0  0  0  0  0  0
    4.2057   -4.0041   -0.9843 H   0  0  0  0  0  0  0  0  0  0  0  0
    3.7602   -3.9833   -2.7126 H   0  0  0  0  0  0  0  0  0  0  0  0
    4.4595   -5.4500   -1.9809 H   0  0  0  0  0  0  0  0  0  0  0  0
    2.0616   -5.7705   -2.3014 H   0  0  0  0  0  0  0  0  0  0  0  0
    2.6811   -5.4115    0.6906 H   0  0  0  0  0  0  0  0  0  0  0  0
    3.0177   -6.8456   -0.3023 H   0  0  0  0  0  0  0  0  0  0  0  0
    1.3316   -6.3533    0.0047 H   0  0  0  0  0  0  0  0  0  0  0  0
   -0.0098   -4.8297   -2.9160 H   0  0  0  0  0  0  0  0  0  0  0  0
    3.1712   -2.0292   -0.2183 H   0  0  0  0  0  0  0  0  0  0  0  0
    2.6288   -3.2419    0.9377 H   0  0  0  0  0  0  0  0  0  0  0  0
    0.8263   -1.6598    1.7200 H   0  0  0  0  0  0  0  0  0  0  0  0
    3.7551   -0.7582    1.8799 H   0  0  0  0  0  0  0  0  0  0  0  0
    2.8318   -1.6091    3.1407 H   0  0  0  0  0  0  0  0  0  0  0  0
    3.0083    1.1576    3.1686 H   0  0  0  0  0  0  0  0  0  0  0  0
    1.4871    0.3682    3.6156 H   0  0  0  0  0  0  0  0  0  0  0  0
    0.5027    2.0501   -0.3332 H   0  0  0  0  0  0  0  0  0  0  0  0
    0.8939    5.0938    1.7623 H   0  0  0  0  0  0  0  0  0  0  0  0
    0.0974    7.3137    0.9692 H   0  0  0  0  0  0  0  0  0  0  0  0
   -0.9977    7.5473   -1.2636 H   0  0  0  0  0  0  0  0  0  0  0  0
   -1.2851    5.5156   -2.6996 H   0  0  0  0  0  0  0  0  0  0  0  0
   -0.4924    3.3106   -1.9109 H   0  0  0  0  0  0  0  0  0  0  0  0
    2.1153    0.2210   -0.3041 H   0  0  0  0  0  0  0  0  0  0  0  0
    0.3986    0.0176    0.1300 H   0  0  0  0  0  0  0  0  0  0  0  0
  1  2  1  0
  1 24  1  0
  1 25  1  0
  1 26  1  0
  2  3  1  0
  2  4  1  0
  2 27  1  6
  3 28  1  0
  3 29  1  0
  3 30  1  0
  4  5  1  0
  4  8  1  0
  5  6  2  0
  5 31  1  0
  6  7  1  0
  7  8  2  0
  8  9  1  0
  9 10  1  0
  9 32  1  0
  9 33  1  0
 10 11  1  0
 10 23  1  0
 10 34  1  1
 11 12  1  0
 11 35  1  0
 11 36  1  0
 12 13  1  0
 12 37  1  0
 12 38  1  0
 13 14  1  0
 13 23  1  0
 14 15  2  0
 14 16  1  0
 16 17  1  0
 16 39  1  0
 17 18  2  0
 17 22  1  0
 18 19  1  0
 18 40  1  0
 19 20  2  0
 19 41  1  0
 20 21  1  0
 20 42  1  0
 21 22  2  0
 21 43  1  0
 22 44  1  0
 23 45  1  0
 23 46  1  0
M  END

