
     RDKit          3D

 48 52  0  0  0  0  0  0  0  0999 V2000
    5.3552   -2.6435   -1.4345 N   0  0  0  0  0  0  0  0  0  0  0  0
    5.3953   -1.1838   -1.5257 C   0  0  1  0  0  0  0  0  0  0  0  0
    5.5264   -0.6557   -2.9614 C   0  0  0  0  0  0  0  0  0  0  0  0
    4.3835   -0.9949   -3.7318 O   0  0  0  0  0  0  0  0  0  0  0  0
    3.2089   -0.3767   -3.2447 C   0  0  0  0  0  0  0  0  0  0  0  0
    2.9058   -0.7991   -1.8037 C   0  0  0  0  0  0  0  0  0  0  0  0
    4.1134   -0.5898   -0.8757 C   0  0  2  0  0  0  0  0  0  0  0  0
    4.2738    0.8241   -0.5578 N   0  0  0  0  0  0  0  0  0  0  0  0
    4.9367    1.2623    0.5537 C   0  0  0  0  0  0  0  0  0  0  0  0
    5.5491    0.3778    1.3356 N   0  0  0  0  0  0  0  0  0  0  0  0
    6.2204    0.7366    2.4529 C   0  0  0  0  0  0  0  0  0  0  0  0
    6.8233   -0.3876    3.1747 C   0  0  0  0  0  0  0  0  0  0  0  0
    7.5934   -0.4677    4.3720 C   0  0  0  0  0  0  0  0  0  0  0  0
    7.9277   -1.7218    4.6500 N   0  0  0  0  0  0  0  0  0  0  0  0
    7.3945   -2.4663    3.6609 N   0  0  0  0  0  0  0  0  0  0  0  0
    7.5627   -3.8959    3.6480 C   0  0  1  0  0  0  0  0  0  0  0  0
    8.8480   -4.5010    4.1429 C   0  0  0  0  0  0  0  0  0  0  0  0
    7.5791   -4.6571    4.9452 C   0  0  0  0  0  0  0  0  0  0  0  0
    6.7260   -1.7197    2.7565 C   0  0  0  0  0  0  0  0  0  0  0  0
    6.2827    2.1026    2.8105 C   0  0  0  0  0  0  0  0  0  0  0  0
    5.6358    3.0496    1.9858 C   0  0  0  0  0  0  0  0  0  0  0  0
    4.9654    2.6470    0.8620 C   0  0  0  0  0  0  0  0  0  0  0  0
    4.3271    3.5198    0.0473 F   0  0  0  0  0  0  0  0  0  0  0  0
    5.8138    4.4400    2.5376 C   0  0  0  0  0  0  0  0  0  0  0  0
    6.6034    4.1804    3.7185 N   0  0  0  0  0  0  0  0  0  0  0  0
    6.9146    2.8527    3.9427 C   0  0  0  0  0  0  0  0  0  0  0  0
    7.5716    2.4586    4.8890 O   0  0  0  0  0  0  0  0  0  0  0  0
    6.2841   -3.0275   -1.6089 H   0  0  0  0  0  0  0  0  0  0  0  0
    4.7601   -3.0158   -2.1772 H   0  0  0  0  0  0  0  0  0  0  0  0
    6.2506   -0.8332   -0.9285 H   0  0  0  0  0  0  0  0  0  0  0  0
    6.3931   -1.1100   -3.4668 H   0  0  0  0  0  0  0  0  0  0  0  0
    5.6730    0.4444   -2.9555 H   0  0  0  0  0  0  0  0  0  0  0  0
    2.3904   -0.6706   -3.9196 H   0  0  0  0  0  0  0  0  0  0  0  0
    3.3080    0.7287   -3.3168 H   0  0  0  0  0  0  0  0  0  0  0  0
    2.6478   -1.8701   -1.7939 H   0  0  0  0  0  0  0  0  0  0  0  0
    2.0253   -0.2580   -1.4170 H   0  0  0  0  0  0  0  0  0  0  0  0
    3.9586   -1.1329    0.0676 H   0  0  0  0  0  0  0  0  0  0  0  0
    3.7828    1.5233   -1.0993 H   0  0  0  0  0  0  0  0  0  0  0  0
    7.8975    0.3553    5.0140 H   0  0  0  0  0  0  0  0  0  0  0  0
    7.0682   -4.3405    2.7812 H   0  0  0  0  0  0  0  0  0  0  0  0
    9.5909   -3.7980    4.5275 H   0  0  0  0  0  0  0  0  0  0  0  0
    9.2490   -5.3638    3.6031 H   0  0  0  0  0  0  0  0  0  0  0  0
    7.4935   -4.0561    5.8537 H   0  0  0  0  0  0  0  0  0  0  0  0
    7.0807   -5.6303    4.9735 H   0  0  0  0  0  0  0  0  0  0  0  0
    6.2326   -2.1521    1.8893 H   0  0  0  0  0  0  0  0  0  0  0  0
    4.8393    4.9104    2.7675 H   0  0  0  0  0  0  0  0  0  0  0  0
    6.3291    5.0983    1.8131 H   0  0  0  0  0  0  0  0  0  0  0  0
    6.9229    4.8957    4.3586 H   0  0  0  0  0  0  0  0  0  0  0  0
  1  2  1  0
  1 28  1  0
  1 29  1  0
  2  3  1  0
  2  7  1  0
  2 30  1  1
  3  4  1  0
  3 31  1  0
  3 32  1  0
  4  5  1  0
  5  6  1  0
  5 33  1  0
  5 34  1  0
  6  7  1  0
  6 35  1  0
  6 36  1  0
  7  8  1  0
  7 37  1  1
  8  9  1  0
  8 38  1  0
  9 10  2  0
  9 22  1  0
 10 11  1  0
 11 12  1  0
 11 20  2  0
 12 13  1  0
 12 19  2  0
 13 14  2  0
 13 39  1  0
 14 15  1  0
 15 16  1  0
 15 19  1  0
 16 17  1  0
 16 18  1  0
 16 40  1  6
 17 18  1  0
 17 41  1  0
 17 42  1  0
 18 43  1  0
 18 44  1  0
 19 45  1  0
 20 21  1  0
 20 26  1  0
 21 22  2  0
 21 24  1  0
 22 23  1  0
 24 25  1  0
 24 46  1  0
 24 47  1  0
 25 26  1  0
 25 48  1  0
 26 27  2  0
M  END

