
     RDKit          3D

 51 53  0  0  0  0  0  0  0  0999 V2000
    1.2798    6.8034   -0.2372 C   0  0  0  0  0  0  0  0  0  0  0  0
    1.1988    5.4429   -0.5953 O   0  0  0  0  0  0  0  0  0  0  0  0
    1.7454    5.0305   -1.7672 C   0  0  0  0  0  0  0  0  0  0  0  0
    2.3956    5.8700   -2.6845 C   0  0  0  0  0  0  0  0  0  0  0  0
    2.9191    5.3368   -3.8659 C   0  0  0  0  0  0  0  0  0  0  0  0
    2.8243    3.9694   -4.1709 C   0  0  0  0  0  0  0  0  0  0  0  0
    3.3942    3.4123   -5.4171 C   0  0  0  0  0  0  0  0  0  0  0  0
    4.4864    3.9272   -6.0864 C   0  0  0  0  0  0  0  0  0  0  0  0
    4.8805    3.0373   -7.5136 S   0  0  0  0  0  0  0  0  0  0  0  0
    3.5671    1.9226   -7.2418 C   0  0  0  0  0  0  0  0  0  0  0  0
    3.2872    0.7763   -8.1783 C   0  0  0  0  0  0  0  0  0  0  0  0
    4.2590   -0.3108   -8.1249 N   0  0  0  0  0  0  0  0  0  0  0  0
    5.3904   -0.2446   -8.9126 C   0  0  0  0  0  0  0  0  0  0  0  0
    5.5523    0.6448   -9.7423 O   0  0  0  0  0  0  0  0  0  0  0  0
    6.3355   -1.2447   -8.7105 N   0  0  0  0  0  0  0  0  0  0  0  0
    5.9980   -2.6076   -8.2994 C   0  0  0  0  0  0  0  0  0  0  0  0
    5.7633   -3.5351   -9.5104 C   0  0  2  0  0  0  0  0  0  0  0  0
    5.4952   -4.9730   -9.0621 C   0  0  0  0  0  0  0  0  0  0  0  0
    6.9431   -3.4495  -10.4954 C   0  0  0  0  0  0  0  0  0  0  0  0
    7.2797   -1.9999  -10.8588 C   0  0  2  0  0  0  0  0  0  0  0  0
    8.4767   -1.8871  -11.7963 C   0  0  0  0  0  0  0  0  0  0  0  0
    9.2307   -2.7847  -12.0572 O   0  0  0  0  0  0  0  0  0  0  0  0
    8.6698   -0.6532  -12.3199 O   0  0  0  0  0  0  0  0  0  0  0  0
    7.5114   -1.1842   -9.5649 C   0  0  0  0  0  0  0  0  0  0  0  0
    2.8823    2.2534   -6.0982 C   0  0  0  0  0  0  0  0  0  0  0  0
    2.1644    3.1450   -3.2350 C   0  0  0  0  0  0  0  0  0  0  0  0
    1.6343    3.6598   -2.0581 C   0  0  0  0  0  0  0  0  0  0  0  0
    0.7836    6.9013    0.7378 H   0  0  0  0  0  0  0  0  0  0  0  0
    0.7634    7.4535   -0.9669 H   0  0  0  0  0  0  0  0  0  0  0  0
    2.3272    7.1427   -0.1404 H   0  0  0  0  0  0  0  0  0  0  0  0
    2.4900    6.9400   -2.4983 H   0  0  0  0  0  0  0  0  0  0  0  0
    3.3960    6.0142   -4.5782 H   0  0  0  0  0  0  0  0  0  0  0  0
    5.1035    4.7752   -5.7927 H   0  0  0  0  0  0  0  0  0  0  0  0
    3.2631    1.1246   -9.2197 H   0  0  0  0  0  0  0  0  0  0  0  0
    2.2930    0.3692   -7.9354 H   0  0  0  0  0  0  0  0  0  0  0  0
    4.3421   -0.7857   -7.2332 H   0  0  0  0  0  0  0  0  0  0  0  0
    5.1087   -2.6059   -7.6555 H   0  0  0  0  0  0  0  0  0  0  0  0
    6.8319   -3.0013   -7.6896 H   0  0  0  0  0  0  0  0  0  0  0  0
    4.8613   -3.1561  -10.0269 H   0  0  0  0  0  0  0  0  0  0  0  0
    6.3641   -5.3908   -8.5258 H   0  0  0  0  0  0  0  0  0  0  0  0
    5.2950   -5.6261   -9.9260 H   0  0  0  0  0  0  0  0  0  0  0  0
    4.6242   -5.0324   -8.3888 H   0  0  0  0  0  0  0  0  0  0  0  0
    6.7204   -4.0284  -11.4060 H   0  0  0  0  0  0  0  0  0  0  0  0
    7.8401   -3.9170  -10.0522 H   0  0  0  0  0  0  0  0  0  0  0  0
    6.4169   -1.5335  -11.3693 H   0  0  0  0  0  0  0  0  0  0  0  0
    7.9615   -0.0509  -12.0453 H   0  0  0  0  0  0  0  0  0  0  0  0
    7.7262   -0.1315   -9.7804 H   0  0  0  0  0  0  0  0  0  0  0  0
    8.3701   -1.6077   -9.0159 H   0  0  0  0  0  0  0  0  0  0  0  0
    2.0029    1.6991   -5.7640 H   0  0  0  0  0  0  0  0  0  0  0  0
    2.0823    2.0720   -3.4235 H   0  0  0  0  0  0  0  0  0  0  0  0
    1.1303    3.0158   -1.3344 H   0  0  0  0  0  0  0  0  0  0  0  0
  1  2  1  0
  1 28  1  0
  1 29  1  0
  1 30  1  0
  2  3  1  0
  3  4  2  0
  3 27  1  0
  4  5  1  0
  4 31  1  0
  5  6  2  0
  5 32  1  0
  6  7  1  0
  6 26  1  0
  7  8  2  0
  7 25  1  0
  8  9  1  0
  8 33  1  0
  9 10  1  0
 10 11  1  0
 10 25  2  0
 11 12  1  0
 11 34  1  0
 11 35  1  0
 12 13  1  0
 12 36  1  0
 13 14  2  0
 13 15  1  0
 15 16  1  0
 15 24  1  0
 16 17  1  0
 16 37  1  0
 16 38  1  0
 17 18  1  0
 17 19  1  0
 17 39  1  6
 18 40  1  0
 18 41  1  0
 18 42  1  0
 19 20  1  0
 19 43  1  0
 19 44  1  0
 20 21  1  0
 20 24  1  0
 20 45  1  6
 21 22  2  0
 21 23  1  0
 23 46  1  0
 24 47  1  0
 24 48  1  0
 25 49  1  0
 26 27  2  0
 26 50  1  0
 27 51  1  0
M  END

