
     RDKit          3D

 60 63  0  0  0  0  0  0  0  0999 V2000
    0.6414    0.3112    0.8671 C   0  0  0  0  0  0  0  0  0  0  0  0
    2.1391    0.1695    0.6906 C   0  0  0  0  0  0  0  0  0  0  0  0
    2.9525    1.2371    1.1085 C   0  0  0  0  0  0  0  0  0  0  0  0
    4.3391    1.2158    0.9594 C   0  0  0  0  0  0  0  0  0  0  0  0
    4.9545    0.1168    0.3555 C   0  0  0  0  0  0  0  0  0  0  0  0
    4.1699   -0.9471   -0.0801 C   0  0  0  0  0  0  0  0  0  0  0  0
    2.7738   -0.9510    0.0980 C   0  0  0  0  0  0  0  0  0  0  0  0
    2.0958   -2.1927   -0.4292 C   0  0  0  0  0  0  0  0  0  0  0  0
    2.5380   -2.8276   -1.3662 O   0  0  0  0  0  0  0  0  0  0  0  0
    0.9609   -2.6109    0.2483 N   0  0  0  0  0  0  0  0  0  0  0  0
    0.3215   -3.7905   -0.0683 N   0  0  0  0  0  0  0  0  0  0  0  0
   -0.7546   -3.7683   -0.9759 C   0  0  0  0  0  0  0  0  0  0  0  0
   -1.5504   -4.8624   -1.1148 C   0  0  0  0  0  0  0  0  0  0  0  0
   -1.3338   -6.1375   -0.3412 C   0  0  0  0  0  0  0  0  0  0  0  0
   -0.0863   -6.0841    0.5026 C   0  0  0  0  0  0  0  0  0  0  0  0
    0.6869   -4.9701    0.6085 C   0  0  0  0  0  0  0  0  0  0  0  0
    1.9447   -4.9163    1.4421 C   0  0  0  0  0  0  0  0  0  0  0  0
    2.5760   -6.3013    1.7176 C   0  0  2  0  0  0  0  0  0  0  0  0
    3.6373   -6.1560    2.8201 C   0  0  0  0  0  0  0  0  0  0  0  0
    3.2505   -6.8421    0.4411 C   0  0  0  0  0  0  0  0  0  0  0  0
    1.4629   -7.2581    2.1786 C   0  0  0  0  0  0  0  0  0  0  0  0
    0.2715   -7.3148    1.2333 C   0  0  0  0  0  0  0  0  0  0  0  0
   -0.3995   -8.3284    1.1203 O   0  0  0  0  0  0  0  0  0  0  0  0
   -2.6911   -4.8430   -2.0504 C   0  0  0  0  0  0  0  0  0  0  0  0
   -3.3945   -5.8294   -2.2013 O   0  0  0  0  0  0  0  0  0  0  0  0
   -2.9976   -3.5374   -2.7697 C   0  0  0  0  0  0  0  0  0  0  0  0
   -1.7501   -2.6914   -3.0782 C   0  0  1  0  0  0  0  0  0  0  0  0
   -0.8722   -3.3971   -4.1309 C   0  0  0  0  0  0  0  0  0  0  0  0
   -2.1667   -1.3139   -3.6183 C   0  0  0  0  0  0  0  0  0  0  0  0
   -0.9574   -2.4972   -1.7641 C   0  0  0  0  0  0  0  0  0  0  0  0
    0.3729    1.3696    0.9955 H   0  0  0  0  0  0  0  0  0  0  0  0
    0.2747   -0.2100    1.7707 H   0  0  0  0  0  0  0  0  0  0  0  0
    0.0768   -0.0771    0.0081 H   0  0  0  0  0  0  0  0  0  0  0  0
    2.4762    2.1150    1.5535 H   0  0  0  0  0  0  0  0  0  0  0  0
    4.9355    2.0653    1.3018 H   0  0  0  0  0  0  0  0  0  0  0  0
    6.0379    0.0926    0.2167 H   0  0  0  0  0  0  0  0  0  0  0  0
    4.6227   -1.8062   -0.5780 H   0  0  0  0  0  0  0  0  0  0  0  0
    0.6674   -2.1475    1.1022 H   0  0  0  0  0  0  0  0  0  0  0  0
   -1.2895   -6.9975   -1.0313 H   0  0  0  0  0  0  0  0  0  0  0  0
   -2.2157   -6.3644    0.2862 H   0  0  0  0  0  0  0  0  0  0  0  0
    1.7153   -4.4231    2.4062 H   0  0  0  0  0  0  0  0  0  0  0  0
    2.6911   -4.2812    0.9443 H   0  0  0  0  0  0  0  0  0  0  0  0
    4.4310   -5.4528    2.5177 H   0  0  0  0  0  0  0  0  0  0  0  0
    4.1133   -7.1261    3.0345 H   0  0  0  0  0  0  0  0  0  0  0  0
    3.1956   -5.7843    3.7594 H   0  0  0  0  0  0  0  0  0  0  0  0
    4.0559   -6.1681    0.1075 H   0  0  0  0  0  0  0  0  0  0  0  0
    2.5390   -6.9478   -0.3915 H   0  0  0  0  0  0  0  0  0  0  0  0
    3.6949   -7.8322    0.6305 H   0  0  0  0  0  0  0  0  0  0  0  0
    1.0758   -6.9287    3.1619 H   0  0  0  0  0  0  0  0  0  0  0  0
    1.8338   -8.2854    2.3160 H   0  0  0  0  0  0  0  0  0  0  0  0
   -3.6808   -2.9638   -2.1145 H   0  0  0  0  0  0  0  0  0  0  0  0
   -3.5667   -3.7796   -3.6804 H   0  0  0  0  0  0  0  0  0  0  0  0
   -1.4359   -3.5440   -5.0661 H   0  0  0  0  0  0  0  0  0  0  0  0
   -0.5270   -4.3843   -3.7889 H   0  0  0  0  0  0  0  0  0  0  0  0
    0.0205   -2.7950   -4.3645 H   0  0  0  0  0  0  0  0  0  0  0  0
   -2.7284   -1.4171   -4.5604 H   0  0  0  0  0  0  0  0  0  0  0  0
   -1.2850   -0.6837   -3.8217 H   0  0  0  0  0  0  0  0  0  0  0  0
   -2.8099   -0.7766   -2.9020 H   0  0  0  0  0  0  0  0  0  0  0  0
   -1.4858   -1.7633   -1.1260 H   0  0  0  0  0  0  0  0  0  0  0  0
    0.0198   -2.0537   -2.0024 H   0  0  0  0  0  0  0  0  0  0  0  0
  1  2  1  0
  1 31  1  0
  1 32  1  0
  1 33  1  0
  2  3  2  0
  2  7  1  0
  3  4  1  0
  3 34  1  0
  4  5  2  0
  4 35  1  0
  5  6  1  0
  5 36  1  0
  6  7  2  0
  6 37  1  0
  7  8  1  0
  8  9  2  0
  8 10  1  0
 10 11  1  0
 10 38  1  0
 11 12  1  0
 11 16  1  0
 12 13  2  0
 12 30  1  0
 13 14  1  0
 13 24  1  0
 14 15  1  0
 14 39  1  0
 14 40  1  0
 15 16  2  0
 15 22  1  0
 16 17  1  0
 17 18  1  0
 17 41  1  0
 17 42  1  0
 18 19  1  1
 18 20  1  0
 18 21  1  0
 19 43  1  0
 19 44  1  0
 19 45  1  0
 20 46  1  0
 20 47  1  0
 20 48  1  0
 21 22  1  0
 21 49  1  0
 21 50  1  0
 22 23  2  0
 24 25  2  0
 24 26  1  0
 26 27  1  0
 26 51  1  0
 26 52  1  0
 27 28  1  6
 27 29  1  0
 27 30  1  0
 28 53  1  0
 28 54  1  0
 28 55  1  0
 29 56  1  0
 29 57  1  0
 29 58  1  0
 30 59  1  0
 30 60  1  0
M  END

