
     RDKit          3D

 39 41  0  0  0  0  0  0  0  0999 V2000
    0.7679   -1.4507   -0.0912 C   0  0  0  0  0  0  0  0  0  0  0  0
    1.5222   -0.2858   -1.2634 S   0  0  0  0  0  0  0  0  0  0  0  0
    2.8395   -1.2795   -1.9060 C   0  0  0  0  0  0  0  0  0  0  0  0
    2.9874   -2.5047   -1.4606 N   0  0  0  0  0  0  0  0  0  0  0  0
    3.9977   -3.2372   -1.9686 C   0  0  0  0  0  0  0  0  0  0  0  0
    4.4540   -4.5380   -1.7504 C   0  0  0  0  0  0  0  0  0  0  0  0
    5.5623   -4.6804   -2.6117 C   0  0  0  0  0  0  0  0  0  0  0  0
    5.8138   -3.5840   -3.3277 N   0  0  0  0  0  0  0  0  0  0  0  0
    4.8593   -2.7113   -2.9320 N   0  0  0  0  0  0  0  0  0  0  0  0
    4.7512   -1.4343   -3.4316 C   0  0  0  0  0  0  0  0  0  0  0  0
    5.6788   -1.1181   -4.3517 N   0  0  0  0  0  0  0  0  0  0  0  0
    5.8465    0.1275   -5.0349 C   0  0  0  0  0  0  0  0  0  0  0  0
    6.6277    1.1471   -4.4792 C   0  0  0  0  0  0  0  0  0  0  0  0
    6.8054    2.3547   -5.1448 C   0  0  0  0  0  0  0  0  0  0  0  0
    6.2079    2.5884   -6.4106 C   0  0  0  0  0  0  0  0  0  0  0  0
    6.3724    3.7869   -7.0726 N   0  0  0  0  0  0  0  0  0  0  0  0
    7.1145    4.8643   -6.4490 C   0  0  0  0  0  0  0  0  0  0  0  0
    5.6954    4.0171   -8.3332 C   0  0  0  0  0  0  0  0  0  0  0  0
    5.4335    1.5373   -6.9673 C   0  0  0  0  0  0  0  0  0  0  0  0
    5.2624    0.3354   -6.2894 C   0  0  0  0  0  0  0  0  0  0  0  0
    3.6934   -0.6667   -2.9058 C   0  0  0  0  0  0  0  0  0  0  0  0
    3.4378    0.6715   -3.3270 C   0  0  0  0  0  0  0  0  0  0  0  0
    3.1685    1.7642   -3.6218 N   0  0  0  0  0  0  0  0  0  0  0  0
   -0.0734   -0.9065    0.3605 H   0  0  0  0  0  0  0  0  0  0  0  0
    1.4884   -1.7469    0.6821 H   0  0  0  0  0  0  0  0  0  0  0  0
    0.4058   -2.3471   -0.6110 H   0  0  0  0  0  0  0  0  0  0  0  0
    4.0302   -5.2627   -1.0616 H   0  0  0  0  0  0  0  0  0  0  0  0
    6.1993   -5.5558   -2.7409 H   0  0  0  0  0  0  0  0  0  0  0  0
    6.3197   -1.8921   -4.5399 H   0  0  0  0  0  0  0  0  0  0  0  0
    7.0931    0.9953   -3.5024 H   0  0  0  0  0  0  0  0  0  0  0  0
    7.4089    3.1253   -4.6679 H   0  0  0  0  0  0  0  0  0  0  0  0
    8.1598    4.5763   -6.2358 H   0  0  0  0  0  0  0  0  0  0  0  0
    6.6581    5.1948   -5.4968 H   0  0  0  0  0  0  0  0  0  0  0  0
    7.1412    5.7274   -7.1261 H   0  0  0  0  0  0  0  0  0  0  0  0
    6.0047    3.2910   -9.1069 H   0  0  0  0  0  0  0  0  0  0  0  0
    5.9446    5.0200   -8.7022 H   0  0  0  0  0  0  0  0  0  0  0  0
    4.5949    3.9552   -8.2380 H   0  0  0  0  0  0  0  0  0  0  0  0
    4.9498    1.6601   -7.9349 H   0  0  0  0  0  0  0  0  0  0  0  0
    4.6528   -0.4543   -6.7349 H   0  0  0  0  0  0  0  0  0  0  0  0
  1  2  1  0
  1 24  1  0
  1 25  1  0
  1 26  1  0
  2  3  1  0
  3  4  2  0
  3 21  1  0
  4  5  1  0
  5  6  2  0
  5  9  1  0
  6  7  1  0
  6 27  1  0
  7  8  2  0
  7 28  1  0
  8  9  1  0
  9 10  1  0
 10 11  1  0
 10 21  2  0
 11 12  1  0
 11 29  1  0
 12 13  2  0
 12 20  1  0
 13 14  1  0
 13 30  1  0
 14 15  2  0
 14 31  1  0
 15 16  1  0
 15 19  1  0
 16 17  1  0
 16 18  1  0
 17 32  1  0
 17 33  1  0
 17 34  1  0
 18 35  1  0
 18 36  1  0
 18 37  1  0
 19 20  2  0
 19 38  1  0
 20 39  1  0
 21 22  1  0
 22 23  3  0
M  END

