
     RDKit          3D

 36 38  0  0  0  0  0  0  0  0999 V2000
    3.0599    3.3112    1.0750 C   0  0  0  0  0  0  0  0  0  0  0  0
    2.4341    2.1729    0.2748 C   0  0  0  0  0  0  0  0  0  0  0  0
    2.7664    0.8374    0.7793 N   0  0  0  0  0  0  0  0  0  0  0  0
    2.4834    0.5701    2.1858 C   0  0  0  0  0  0  0  0  0  0  0  0
    1.0247    0.6387    2.5972 C   0  0  0  0  0  0  0  0  0  0  0  0
    0.3351    1.7457    2.6467 N   0  0  0  0  0  0  0  0  0  0  0  0
   -0.9499    1.4008    3.0275 C   0  0  0  0  0  0  0  0  0  0  0  0
   -2.0756    2.2123    3.2289 C   0  0  0  0  0  0  0  0  0  0  0  0
   -3.2631    1.6006    3.6256 C   0  0  0  0  0  0  0  0  0  0  0  0
   -3.3370    0.2064    3.8200 C   0  0  0  0  0  0  0  0  0  0  0  0
   -2.2274   -0.6184    3.6237 C   0  0  0  0  0  0  0  0  0  0  0  0
   -1.0396    0.0030    3.2267 C   0  0  0  0  0  0  0  0  0  0  0  0
    0.2420   -0.4778    2.9436 N   0  0  0  0  0  0  0  0  0  0  0  0
    0.6443   -1.8328    3.0737 C   0  0  1  0  0  0  0  0  0  0  0  0
    1.0006   -2.3652    1.8794 F   0  0  0  0  0  0  0  0  0  0  0  0
    1.7233   -1.9436    3.8881 F   0  0  0  0  0  0  0  0  0  0  0  0
    2.3926   -0.2207   -0.1158 C   0  0  1  0  0  0  0  0  0  0  0  0
    3.2666   -0.4748   -1.3178 C   0  0  0  0  0  0  0  0  0  0  0  0
    3.2552   -1.4530   -0.1707 C   0  0  0  0  0  0  0  0  0  0  0  0
    2.9150    4.2639    0.5416 H   0  0  0  0  0  0  0  0  0  0  0  0
    4.1429    3.1534    1.2065 H   0  0  0  0  0  0  0  0  0  0  0  0
    2.5906    3.4188    2.0642 H   0  0  0  0  0  0  0  0  0  0  0  0
    2.8089    2.2090   -0.7610 H   0  0  0  0  0  0  0  0  0  0  0  0
    1.3372    2.3316    0.2190 H   0  0  0  0  0  0  0  0  0  0  0  0
    3.0155    1.3103    2.8020 H   0  0  0  0  0  0  0  0  0  0  0  0
    2.8990   -0.4131    2.4391 H   0  0  0  0  0  0  0  0  0  0  0  0
   -2.0057    3.2908    3.0751 H   0  0  0  0  0  0  0  0  0  0  0  0
   -4.1561    2.2086    3.7893 H   0  0  0  0  0  0  0  0  0  0  0  0
   -4.2841   -0.2421    4.1294 H   0  0  0  0  0  0  0  0  0  0  0  0
   -2.3067   -1.6974    3.7738 H   0  0  0  0  0  0  0  0  0  0  0  0
   -0.1809   -2.4274    3.4945 H   0  0  0  0  0  0  0  0  0  0  0  0
    1.3116   -0.3847   -0.2704 H   0  0  0  0  0  0  0  0  0  0  0  0
    4.1520    0.1575   -1.4253 H   0  0  0  0  0  0  0  0  0  0  0  0
    2.7855   -0.7569   -2.2586 H   0  0  0  0  0  0  0  0  0  0  0  0
    4.1354   -1.4694    0.4782 H   0  0  0  0  0  0  0  0  0  0  0  0
    2.7633   -2.4204   -0.2996 H   0  0  0  0  0  0  0  0  0  0  0  0
  1  2  1  0
  1 20  1  0
  1 21  1  0
  1 22  1  0
  2  3  1  0
  2 23  1  0
  2 24  1  0
  3  4  1  0
  3 17  1  0
  4  5  1  0
  4 25  1  0
  4 26  1  0
  5  6  2  0
  5 13  1  0
  6  7  1  0
  7  8  2  0
  7 12  1  0
  8  9  1  0
  8 27  1  0
  9 10  2  0
  9 28  1  0
 10 11  1  0
 10 29  1  0
 11 12  2  0
 11 30  1  0
 12 13  1  0
 13 14  1  0
 14 15  1  0
 14 16  1  0
 14 31  1  1
 17 18  1  0
 17 19  1  0
 17 32  1  6
 18 19  1  0
 18 33  1  0
 18 34  1  0
 19 35  1  0
 19 36  1  0
M  END

