
     RDKit          3D

 29 31  0  0  0  0  0  0  0  0999 V2000
    1.2352    0.1579   -0.6567 N   0  0  0  0  0  0  0  0  0  0  0  0
    2.5942   -0.0802   -0.2098 C   0  0  1  0  0  0  0  0  0  0  0  0
    3.2074    1.0037    0.7107 C   0  0  0  0  0  0  0  0  0  0  0  0
    3.1863    2.2034    0.5315 O   0  0  0  0  0  0  0  0  0  0  0  0
    3.7815    0.3622    1.7981 N   0  0  0  0  0  0  0  0  0  0  0  0
    4.4578    1.0959    2.8604 C   0  0  0  0  0  0  0  0  0  0  0  0
    5.9532    1.1917    2.6965 C   0  0  0  0  0  0  0  0  0  0  0  0
    6.6491    2.0493    1.8759 C   0  0  0  0  0  0  0  0  0  0  0  0
    8.0624    1.8579    1.9337 C   0  0  0  0  0  0  0  0  0  0  0  0
    8.4266    0.8572    2.7997 C   0  0  0  0  0  0  0  0  0  0  0  0
    7.0460    0.1381    3.5511 S   0  0  0  0  0  0  0  0  0  0  0  0
    3.5442   -1.0222    1.7496 C   0  0  0  0  0  0  0  0  0  0  0  0
    3.9127   -2.0108    2.6599 C   0  0  0  0  0  0  0  0  0  0  0  0
    3.5028   -3.3296    2.4095 C   0  0  0  0  0  0  0  0  0  0  0  0
    2.7458   -3.6343    1.2760 C   0  0  0  0  0  0  0  0  0  0  0  0
    2.1922   -5.4365    0.9723 Br  0  0  0  0  0  0  0  0  0  0  0  0
    2.3861   -2.6399    0.3520 C   0  0  0  0  0  0  0  0  0  0  0  0
    2.8000   -1.3390    0.5965 C   0  0  0  0  0  0  0  0  0  0  0  0
    1.1914    1.0608   -1.1323 H   0  0  0  0  0  0  0  0  0  0  0  0
    0.6072    0.2231    0.1459 H   0  0  0  0  0  0  0  0  0  0  0  0
    3.2457   -0.1099   -1.1050 H   0  0  0  0  0  0  0  0  0  0  0  0
    4.1930    0.6425    3.8281 H   0  0  0  0  0  0  0  0  0  0  0  0
    4.0353    2.1112    2.8381 H   0  0  0  0  0  0  0  0  0  0  0  0
    6.1509    2.7919    1.2498 H   0  0  0  0  0  0  0  0  0  0  0  0
    8.7820    2.4451    1.3608 H   0  0  0  0  0  0  0  0  0  0  0  0
    9.4282    0.5074    3.0455 H   0  0  0  0  0  0  0  0  0  0  0  0
    4.5080   -1.7864    3.5459 H   0  0  0  0  0  0  0  0  0  0  0  0
    3.7769   -4.1222    3.1077 H   0  0  0  0  0  0  0  0  0  0  0  0
    1.7919   -2.8769   -0.5319 H   0  0  0  0  0  0  0  0  0  0  0  0
  1  2  1  0
  1 19  1  0
  1 20  1  0
  2  3  1  0
  2 18  1  0
  2 21  1  6
  3  4  2  0
  3  5  1  0
  5  6  1  0
  5 12  1  0
  6  7  1  0
  6 22  1  0
  6 23  1  0
  7  8  2  0
  7 11  1  0
  8  9  1  0
  8 24  1  0
  9 10  2  0
  9 25  1  0
 10 11  1  0
 10 26  1  0
 12 13  2  0
 12 18  1  0
 13 14  1  0
 13 27  1  0
 14 15  2  0
 14 28  1  0
 15 16  1  0
 15 17  1  0
 17 18  2  0
 17 29  1  0
M  END

