
     RDKit          3D

 39 39  0  0  0  0  0  0  0  0999 V2000
    3.3223   -2.6390   -5.7590 C   0  0  0  0  0  0  0  0  0  0  0  0
    3.3639   -2.8661   -4.3777 O   0  0  0  0  0  0  0  0  0  0  0  0
    4.5124   -2.3551   -3.7478 C   0  0  0  0  0  0  0  0  0  0  0  0
    4.4246   -2.6969   -2.2636 C   0  0  0  0  0  0  0  0  0  0  0  0
    5.5621   -2.2029   -1.4966 N   0  0  0  0  0  0  0  0  0  0  0  0
    5.4732   -0.7863   -1.1892 C   0  0  0  0  0  0  0  0  0  0  0  0
    5.8465   -3.0046   -0.3149 C   0  0  0  0  0  0  0  0  0  0  0  0
    6.3844   -4.3894   -0.6256 C   0  0  0  0  0  0  0  0  0  0  0  0
    7.3426   -4.5782   -1.6276 C   0  0  0  0  0  0  0  0  0  0  0  0
    7.8601   -5.8517   -1.8632 C   0  0  0  0  0  0  0  0  0  0  0  0
    7.4613   -6.9739   -1.1189 C   0  0  0  0  0  0  0  0  0  0  0  0
    8.0620   -8.3185   -1.4143 C   0  0  0  0  0  0  0  0  0  0  0  0
    8.3222   -9.2476   -0.5725 N   0  0  0  0  0  0  0  0  0  0  0  0
    8.4267   -8.4946   -2.7457 N   0  0  0  0  0  0  0  0  0  0  0  0
    6.4963   -6.7745   -0.0985 C   0  0  0  0  0  0  0  0  0  0  0  0
    6.1187   -7.8634    0.6203 O   0  0  0  0  0  0  0  0  0  0  0  0
    5.1152   -7.7485    1.6045 C   0  0  0  0  0  0  0  0  0  0  0  0
    5.9657   -5.4950    0.1270 C   0  0  0  0  0  0  0  0  0  0  0  0
    2.3897   -3.0756   -6.1463 H   0  0  0  0  0  0  0  0  0  0  0  0
    4.1772   -3.1110   -6.2859 H   0  0  0  0  0  0  0  0  0  0  0  0
    3.3319   -1.5566   -6.0047 H   0  0  0  0  0  0  0  0  0  0  0  0
    4.5831   -1.2579   -3.9037 H   0  0  0  0  0  0  0  0  0  0  0  0
    5.4361   -2.7992   -4.1733 H   0  0  0  0  0  0  0  0  0  0  0  0
    4.3889   -3.7936   -2.1841 H   0  0  0  0  0  0  0  0  0  0  0  0
    3.4560   -2.3191   -1.8665 H   0  0  0  0  0  0  0  0  0  0  0  0
    5.3257   -0.1990   -2.1074 H   0  0  0  0  0  0  0  0  0  0  0  0
    6.4086   -0.4393   -0.7224 H   0  0  0  0  0  0  0  0  0  0  0  0
    4.6346   -0.5403   -0.4973 H   0  0  0  0  0  0  0  0  0  0  0  0
    4.9604   -3.0956    0.3553 H   0  0  0  0  0  0  0  0  0  0  0  0
    6.6099   -2.4639    0.2724 H   0  0  0  0  0  0  0  0  0  0  0  0
    7.6723   -3.7231   -2.2204 H   0  0  0  0  0  0  0  0  0  0  0  0
    8.6158   -5.9938   -2.6383 H   0  0  0  0  0  0  0  0  0  0  0  0
    8.0600   -8.9574    0.3690 H   0  0  0  0  0  0  0  0  0  0  0  0
    7.7994   -8.1082   -3.4433 H   0  0  0  0  0  0  0  0  0  0  0  0
    8.7320   -9.4433   -2.9436 H   0  0  0  0  0  0  0  0  0  0  0  0
    4.9732   -8.7550    2.0201 H   0  0  0  0  0  0  0  0  0  0  0  0
    4.1588   -7.3994    1.1760 H   0  0  0  0  0  0  0  0  0  0  0  0
    5.4121   -7.0634    2.4187 H   0  0  0  0  0  0  0  0  0  0  0  0
    5.2114   -5.3462    0.9002 H   0  0  0  0  0  0  0  0  0  0  0  0
  1  2  1  0
  1 19  1  0
  1 20  1  0
  1 21  1  0
  2  3  1  0
  3  4  1  0
  3 22  1  0
  3 23  1  0
  4  5  1  0
  4 24  1  0
  4 25  1  0
  5  6  1  0
  5  7  1  0
  6 26  1  0
  6 27  1  0
  6 28  1  0
  7  8  1  0
  7 29  1  0
  7 30  1  0
  8  9  2  0
  8 18  1  0
  9 10  1  0
  9 31  1  0
 10 11  2  0
 10 32  1  0
 11 12  1  0
 11 15  1  0
 12 13  2  0
 12 14  1  0
 13 33  1  0
 14 34  1  0
 14 35  1  0
 15 16  1  0
 15 18  2  0
 16 17  1  0
 17 36  1  0
 17 37  1  0
 17 38  1  0
 18 39  1  0
M  END

