
     RDKit          3D

 42 43  0  0  0  0  0  0  0  0999 V2000
    3.0422   -0.7532   -1.7466 C   0  0  0  0  0  0  0  0  0  0  0  0
    2.4655    0.0156   -0.5531 C   0  0  1  0  0  0  0  0  0  0  0  0
    0.9502    0.2020   -0.7000 C   0  0  0  0  0  0  0  0  0  0  0  0
    2.7996   -0.5974    0.8424 C   0  0  1  0  0  0  0  0  0  0  0  0
    2.2002   -1.9040    1.0557 N   0  0  0  0  0  0  0  0  0  0  0  0
    1.3365   -2.1163    2.1127 C   0  0  0  0  0  0  0  0  0  0  0  0
    0.9226   -1.2237    2.8360 O   0  0  0  0  0  0  0  0  0  0  0  0
    0.9687   -3.4416    2.2772 N   0  0  0  0  0  0  0  0  0  0  0  0
   -0.0100   -3.8395    3.2618 C   0  0  1  0  0  0  0  0  0  0  0  0
   -1.4203   -4.1148    2.6958 C   0  0  0  0  0  0  0  0  0  0  0  0
   -2.2485   -4.7892    3.7922 C   0  0  0  0  0  0  0  0  0  0  0  0
   -1.0793   -5.5118    5.0958 S   0  0  0  0  0  0  0  0  0  0  0  0
   -1.0484   -4.4938    6.2133 O   0  0  0  0  0  0  0  0  0  0  0  0
    0.3742   -5.1179    4.0139 C   0  0  0  0  0  0  0  0  0  0  0  0
    4.2869   -0.5069    1.2057 C   0  0  0  0  0  0  0  0  0  0  0  0
    4.7037    0.6666    1.8649 C   0  0  0  0  0  0  0  0  0  0  0  0
    6.0275    0.8949    2.2363 C   0  0  0  0  0  0  0  0  0  0  0  0
    6.9981   -0.0715    1.9627 C   0  0  0  0  0  0  0  0  0  0  0  0
    6.6274   -1.2494    1.3168 C   0  0  0  0  0  0  0  0  0  0  0  0
    5.2939   -1.4536    0.9429 C   0  0  0  0  0  0  0  0  0  0  0  0
    4.9672   -2.9852    0.1137 Cl  0  0  0  0  0  0  0  0  0  0  0  0
    2.7826   -0.2438   -2.6885 H   0  0  0  0  0  0  0  0  0  0  0  0
    2.6305   -1.7745   -1.8023 H   0  0  0  0  0  0  0  0  0  0  0  0
    4.1382   -0.8347   -1.7028 H   0  0  0  0  0  0  0  0  0  0  0  0
    2.9309    1.0178   -0.5457 H   0  0  0  0  0  0  0  0  0  0  0  0
    0.4357   -0.7721   -0.7184 H   0  0  0  0  0  0  0  0  0  0  0  0
    0.7108    0.7269   -1.6386 H   0  0  0  0  0  0  0  0  0  0  0  0
    0.5280    0.7830    0.1348 H   0  0  0  0  0  0  0  0  0  0  0  0
    2.2871    0.0406    1.5755 H   0  0  0  0  0  0  0  0  0  0  0  0
    2.6605   -2.7035    0.6381 H   0  0  0  0  0  0  0  0  0  0  0  0
    1.1928   -4.1026    1.5414 H   0  0  0  0  0  0  0  0  0  0  0  0
   -0.0697   -3.0157    3.9881 H   0  0  0  0  0  0  0  0  0  0  0  0
   -1.3281   -4.7817    1.8203 H   0  0  0  0  0  0  0  0  0  0  0  0
   -1.8876   -3.1809    2.3473 H   0  0  0  0  0  0  0  0  0  0  0  0
   -2.9164   -5.5844    3.4295 H   0  0  0  0  0  0  0  0  0  0  0  0
   -2.8239   -4.0837    4.4083 H   0  0  0  0  0  0  0  0  0  0  0  0
    0.5336   -5.9728    3.3324 H   0  0  0  0  0  0  0  0  0  0  0  0
    1.2376   -5.0092    4.6845 H   0  0  0  0  0  0  0  0  0  0  0  0
    3.9463    1.4197    2.0990 H   0  0  0  0  0  0  0  0  0  0  0  0
    6.2971    1.8211    2.7489 H   0  0  0  0  0  0  0  0  0  0  0  0
    8.0398    0.0838    2.2529 H   0  0  0  0  0  0  0  0  0  0  0  0
    7.3649   -2.0217    1.0925 H   0  0  0  0  0  0  0  0  0  0  0  0
  1  2  1  0
  1 22  1  0
  1 23  1  0
  1 24  1  0
  2  3  1  0
  2  4  1  0
  2 25  1  1
  3 26  1  0
  3 27  1  0
  3 28  1  0
  4  5  1  0
  4 15  1  0
  4 29  1  1
  5  6  1  0
  5 30  1  0
  6  7  2  0
  6  8  1  0
  8  9  1  0
  8 31  1  0
  9 10  1  0
  9 14  1  0
  9 32  1  1
 10 11  1  0
 10 33  1  0
 10 34  1  0
 11 12  1  0
 11 35  1  0
 11 36  1  0
 12 13  1  1
 12 14  1  0
 14 37  1  0
 14 38  1  0
 15 16  2  0
 15 20  1  0
 16 17  1  0
 16 39  1  0
 17 18  2  0
 17 40  1  0
 18 19  1  0
 18 41  1  0
 19 20  2  0
 19 42  1  0
 20 21  1  0
M  CHG  2  12   1  13  -1
M  END

