
     RDKit          3D

 87 93  0  0  0  0  0  0  0  0999 V2000
    1.8819    3.0004   -0.6653 C   0  0  0  0  0  0  0  0  0  0  0  0
    3.1913    2.4447   -0.7981 O   0  0  0  0  0  0  0  0  0  0  0  0
    3.2655    1.1169   -0.9593 C   0  0  0  0  0  0  0  0  0  0  0  0
    2.2921    0.4008   -0.9775 O   0  0  0  0  0  0  0  0  0  0  0  0
    4.7166    0.6025   -1.0587 C   0  0  1  0  0  0  0  0  0  0  0  0
    5.7054    1.7259   -1.4949 C   0  0  0  0  0  0  0  0  0  0  0  0
    7.1828    1.3853   -1.4626 C   0  0  0  0  0  0  0  0  0  0  0  0
    7.7818    0.4717   -2.3547 C   0  0  0  0  0  0  0  0  0  0  0  0
    9.1452    0.1990   -2.3089 C   0  0  0  0  0  0  0  0  0  0  0  0
    9.9716    0.8365   -1.3671 C   0  0  0  0  0  0  0  0  0  0  0  0
   11.2878    0.5071   -1.4010 O   0  0  0  0  0  0  0  0  0  0  0  0
   12.1729    1.1103   -0.4856 C   0  0  0  0  0  0  0  0  0  0  0  0
    9.4006    1.7540   -0.4748 C   0  0  0  0  0  0  0  0  0  0  0  0
    8.0256    2.0126   -0.5348 C   0  0  0  0  0  0  0  0  0  0  0  0
    5.1159    0.0210    0.3676 C   0  0  1  0  0  0  0  0  0  0  0  0
    6.1559    0.3221    0.5523 H   0  0  0  0  0  0  0  0  0  0  0  0
    4.2069    0.3095    1.5311 C   0  0  0  0  0  0  0  0  0  0  0  0
    3.8327    1.3308    2.4349 C   0  0  0  0  0  0  0  0  0  0  0  0
    2.8346    0.7992    3.2619 C   0  0  0  0  0  0  0  0  0  0  0  0
    2.2642    1.3397    4.5246 C   0  0  0  0  0  0  0  0  0  0  0  0
    2.0436    0.5992    5.4827 O   0  0  0  0  0  0  0  0  0  0  0  0
    2.0442    2.6985    4.6144 N   0  0  0  0  0  0  0  0  0  0  0  0
    1.9532    3.6205    3.5002 C   0  0  0  0  0  0  0  0  0  0  0  0
    1.7006    3.2550    5.9116 C   0  0  0  0  0  0  0  0  0  0  0  0
    2.6074   -0.5248    2.8686 N   0  0  0  0  0  0  0  0  0  0  0  0
    1.6261   -1.4501    3.4234 C   0  0  0  0  0  0  0  0  0  0  0  0
    0.2659   -1.4355    2.7425 C   0  0  0  0  0  0  0  0  0  0  0  0
    0.0520   -0.7663    1.5518 C   0  0  0  0  0  0  0  0  0  0  0  0
   -1.2149   -0.7812    0.9152 C   0  0  0  0  0  0  0  0  0  0  0  0
   -2.2680   -1.4692    1.4716 C   0  0  0  0  0  0  0  0  0  0  0  0
   -2.0981   -2.1784    2.6939 C   0  0  0  0  0  0  0  0  0  0  0  0
   -3.1704   -2.9032    3.2850 C   0  0  0  0  0  0  0  0  0  0  0  0
   -2.9992   -3.5933    4.4663 C   0  0  0  0  0  0  0  0  0  0  0  0
   -1.7390   -3.5839    5.1110 C   0  0  0  0  0  0  0  0  0  0  0  0
   -0.6782   -2.8891    4.5653 C   0  0  0  0  0  0  0  0  0  0  0  0
   -0.8162   -2.1660    3.3446 C   0  0  0  0  0  0  0  0  0  0  0  0
    3.4329   -0.7969    1.8220 C   0  0  0  0  0  0  0  0  0  0  0  0
    3.6595   -1.9562    0.9029 C   0  0  0  0  0  0  0  0  0  0  0  0
    5.0071   -1.5321    0.2323 C   0  0  1  0  0  0  0  0  0  0  0  0
    5.8288   -1.9955    0.7983 H   0  0  0  0  0  0  0  0  0  0  0  0
    5.1655   -1.8213   -1.2550 C   0  0  0  0  0  0  0  0  0  0  0  0
    4.7509   -0.5866   -1.9358 N   0  0  0  0  0  0  0  0  0  0  0  0
    4.6436   -0.6541   -3.3056 C   0  0  0  0  0  0  0  0  0  0  0  0
    4.9787   -1.6710   -3.9001 O   0  0  0  0  0  0  0  0  0  0  0  0
    4.1087    0.5111   -4.1098 C   0  0  0  0  0  0  0  0  0  0  0  0
    2.7624    0.9032   -4.0485 C   0  0  0  0  0  0  0  0  0  0  0  0
    2.2733    1.8832   -4.9196 C   0  0  0  0  0  0  0  0  0  0  0  0
    3.1204    2.4864   -5.8520 C   0  0  0  0  0  0  0  0  0  0  0  0
    4.4591    2.0869   -5.9301 C   0  0  0  0  0  0  0  0  0  0  0  0
    4.9445    1.0940   -5.0779 C   0  0  0  0  0  0  0  0  0  0  0  0
    2.0225    4.0789   -0.5236 H   0  0  0  0  0  0  0  0  0  0  0  0
    1.3593    2.5630    0.1976 H   0  0  0  0  0  0  0  0  0  0  0  0
    1.2890    2.8111   -1.5722 H   0  0  0  0  0  0  0  0  0  0  0  0
    5.4181    2.0703   -2.4992 H   0  0  0  0  0  0  0  0  0  0  0  0
    5.5308    2.5785   -0.8255 H   0  0  0  0  0  0  0  0  0  0  0  0
    7.1808   -0.0464   -3.1037 H   0  0  0  0  0  0  0  0  0  0  0  0
    9.6014   -0.5097   -3.0031 H   0  0  0  0  0  0  0  0  0  0  0  0
   13.1693    0.6977   -0.6938 H   0  0  0  0  0  0  0  0  0  0  0  0
   11.9033    0.8806    0.5614 H   0  0  0  0  0  0  0  0  0  0  0  0
   12.2087    2.2082   -0.6086 H   0  0  0  0  0  0  0  0  0  0  0  0
   10.0079    2.2736    0.2666 H   0  0  0  0  0  0  0  0  0  0  0  0
    7.6012    2.7361    0.1678 H   0  0  0  0  0  0  0  0  0  0  0  0
    4.2609    2.3261    2.5304 H   0  0  0  0  0  0  0  0  0  0  0  0
    1.9336    3.0789    2.5490 H   0  0  0  0  0  0  0  0  0  0  0  0
    2.7969    4.3356    3.4798 H   0  0  0  0  0  0  0  0  0  0  0  0
    1.0219    4.2092    3.5819 H   0  0  0  0  0  0  0  0  0  0  0  0
    1.8726    2.4967    6.6832 H   0  0  0  0  0  0  0  0  0  0  0  0
    0.6379    3.5587    5.9490 H   0  0  0  0  0  0  0  0  0  0  0  0
    2.3178    4.1465    6.1190 H   0  0  0  0  0  0  0  0  0  0  0  0
    2.0597   -2.4623    3.3579 H   0  0  0  0  0  0  0  0  0  0  0  0
    1.5309   -1.2082    4.4888 H   0  0  0  0  0  0  0  0  0  0  0  0
    0.8672   -0.2239    1.0700 H   0  0  0  0  0  0  0  0  0  0  0  0
   -1.3402   -0.2447   -0.0287 H   0  0  0  0  0  0  0  0  0  0  0  0
   -3.2460   -1.4864    0.9829 H   0  0  0  0  0  0  0  0  0  0  0  0
   -4.1405   -2.9038    2.7801 H   0  0  0  0  0  0  0  0  0  0  0  0
   -3.8324   -4.1461    4.9075 H   0  0  0  0  0  0  0  0  0  0  0  0
   -1.6059   -4.1283    6.0494 H   0  0  0  0  0  0  0  0  0  0  0  0
    0.2794   -2.8947    5.0877 H   0  0  0  0  0  0  0  0  0  0  0  0
    2.8486   -2.0376    0.1587 H   0  0  0  0  0  0  0  0  0  0  0  0
    3.7455   -2.9314    1.4096 H   0  0  0  0  0  0  0  0  0  0  0  0
    4.5535   -2.6633   -1.6109 H   0  0  0  0  0  0  0  0  0  0  0  0
    6.2108   -2.0618   -1.5144 H   0  0  0  0  0  0  0  0  0  0  0  0
    2.0916    0.4247   -3.3348 H   0  0  0  0  0  0  0  0  0  0  0  0
    1.2188    2.1686   -4.8730 H   0  0  0  0  0  0  0  0  0  0  0  0
    2.7368    3.2559   -6.5270 H   0  0  0  0  0  0  0  0  0  0  0  0
    5.1252    2.5414   -6.6680 H   0  0  0  0  0  0  0  0  0  0  0  0
    5.9811    0.7611   -5.1640 H   0  0  0  0  0  0  0  0  0  0  0  0
  1  2  1  0
  1 51  1  0
  1 52  1  0
  1 53  1  0
  2  3  1  0
  3  4  2  0
  5  3  1  1
  5  6  1  0
  5 15  1  0
  5 42  1  0
  6  7  1  0
  6 54  1  0
  6 55  1  0
  7  8  2  0
  7 14  1  0
  8  9  1  0
  8 56  1  0
  9 10  2  0
  9 57  1  0
 10 11  1  0
 10 13  1  0
 11 12  1  0
 12 58  1  0
 12 59  1  0
 12 60  1  0
 13 14  2  0
 13 61  1  0
 14 62  1  0
 15 16  1  1
 15 17  1  0
 15 39  1  0
 17 18  1  0
 17 37  2  0
 18 19  2  0
 18 63  1  0
 19 20  1  0
 19 25  1  0
 20 21  2  0
 20 22  1  0
 22 23  1  0
 22 24  1  0
 23 64  1  0
 23 65  1  0
 23 66  1  0
 24 67  1  0
 24 68  1  0
 24 69  1  0
 25 26  1  0
 25 37  1  0
 26 27  1  0
 26 70  1  0
 26 71  1  0
 27 28  2  0
 27 36  1  0
 28 29  1  0
 28 72  1  0
 29 30  2  0
 29 73  1  0
 30 31  1  0
 30 74  1  0
 31 32  1  0
 31 36  2  0
 32 33  2  0
 32 75  1  0
 33 34  1  0
 33 76  1  0
 34 35  2  0
 34 77  1  0
 35 36  1  0
 35 78  1  0
 37 38  1  0
 38 39  1  0
 38 79  1  0
 38 80  1  0
 39 40  1  1
 39 41  1  0
 41 42  1  0
 41 81  1  0
 41 82  1  0
 42 43  1  0
 43 44  2  0
 43 45  1  0
 45 46  2  0
 45 50  1  0
 46 47  1  0
 46 83  1  0
 47 48  2  0
 47 84  1  0
 48 49  1  0
 48 85  1  0
 49 50  2  0
 49 86  1  0
 50 87  1  0
M  END

