
     RDKit          3D

 42 43  0  0  0  0  0  0  0  0999 V2000
    2.7916   -1.9008    3.4198 C   0  0  0  0  0  0  0  0  0  0  0  0
    2.1906   -1.9794    2.0142 C   0  0  0  0  0  0  0  0  0  0  0  0
    2.5821   -0.8666    1.0120 C   0  0  1  0  0  0  0  0  0  0  0  0
    2.0306    0.4808    1.4575 C   0  0  0  0  0  0  0  0  0  0  0  0
    2.7273    1.1683    2.4134 N   0  0  0  0  0  0  0  0  0  0  0  0
    0.9103    0.8565    0.9422 N   0  0  0  0  0  0  0  0  0  0  0  0
    0.5137    2.0944    1.4998 O   0  0  0  0  0  0  0  0  0  0  0  0
    4.0364   -0.7373    0.7992 N   0  0  0  0  0  0  0  0  0  0  0  0
    4.8020   -1.9707    0.6094 C   0  0  0  0  0  0  0  0  0  0  0  0
    4.6300   -2.6065   -0.7774 C   0  0  0  0  0  0  0  0  0  0  0  0
    4.9171   -1.6268   -1.8172 N   0  0  0  0  0  0  0  0  0  0  0  0
    5.6309   -1.9511   -2.9422 C   0  0  0  0  0  0  0  0  0  0  0  0
    6.1579   -3.1887   -3.0204 N   0  0  0  0  0  0  0  0  0  0  0  0
    6.8671   -3.4761   -4.1058 C   0  0  0  0  0  0  0  0  0  0  0  0
    7.0869   -2.5762   -5.1571 C   0  0  0  0  0  0  0  0  0  0  0  0
    7.8944   -2.9164   -6.3812 C   0  0  0  0  0  0  0  0  0  0  0  0
    6.4805   -1.3246   -4.9658 C   0  0  0  0  0  0  0  0  0  0  0  0
    5.7668   -1.0048   -3.8951 N   0  0  0  0  0  0  0  0  0  0  0  0
    4.2162   -0.3551   -1.6848 C   0  0  0  0  0  0  0  0  0  0  0  0
    4.3953    0.2070   -0.2674 C   0  0  0  0  0  0  0  0  0  0  0  0
    2.4370   -2.7445    4.0335 H   0  0  0  0  0  0  0  0  0  0  0  0
    2.5043   -0.9685    3.9268 H   0  0  0  0  0  0  0  0  0  0  0  0
    3.8922   -1.9412    3.4043 H   0  0  0  0  0  0  0  0  0  0  0  0
    1.0917   -1.9429    2.0838 H   0  0  0  0  0  0  0  0  0  0  0  0
    2.4218   -2.9586    1.5614 H   0  0  0  0  0  0  0  0  0  0  0  0
    2.0344   -1.0963    0.0777 H   0  0  0  0  0  0  0  0  0  0  0  0
    3.7087    0.9268    2.4950 H   0  0  0  0  0  0  0  0  0  0  0  0
    2.4525    2.1320    2.5643 H   0  0  0  0  0  0  0  0  0  0  0  0
   -0.2967    2.2907    1.0157 H   0  0  0  0  0  0  0  0  0  0  0  0
    4.5503   -2.7046    1.3859 H   0  0  0  0  0  0  0  0  0  0  0  0
    5.8692   -1.7190    0.7432 H   0  0  0  0  0  0  0  0  0  0  0  0
    3.5960   -2.9900   -0.8962 H   0  0  0  0  0  0  0  0  0  0  0  0
    5.3098   -3.4571   -0.9057 H   0  0  0  0  0  0  0  0  0  0  0  0
    7.2907   -4.4889   -4.1545 H   0  0  0  0  0  0  0  0  0  0  0  0
    8.2245   -3.9662   -6.3580 H   0  0  0  0  0  0  0  0  0  0  0  0
    8.7978   -2.2882   -6.4643 H   0  0  0  0  0  0  0  0  0  0  0  0
    7.3142   -2.7715   -7.3080 H   0  0  0  0  0  0  0  0  0  0  0  0
    6.5810   -0.5425   -5.7314 H   0  0  0  0  0  0  0  0  0  0  0  0
    3.1395   -0.4925   -1.9077 H   0  0  0  0  0  0  0  0  0  0  0  0
    4.6153    0.3407   -2.4319 H   0  0  0  0  0  0  0  0  0  0  0  0
    3.8013    1.1270   -0.1643 H   0  0  0  0  0  0  0  0  0  0  0  0
    5.4565    0.4822   -0.1321 H   0  0  0  0  0  0  0  0  0  0  0  0
  1  2  1  0
  1 21  1  0
  1 22  1  0
  1 23  1  0
  2  3  1  0
  2 24  1  0
  2 25  1  0
  3  4  1  0
  3  8  1  0
  3 26  1  6
  4  5  1  0
  4  6  2  0
  5 27  1  0
  5 28  1  0
  6  7  1  0
  7 29  1  0
  8  9  1  0
  8 20  1  0
  9 10  1  0
  9 30  1  0
  9 31  1  0
 10 11  1  0
 10 32  1  0
 10 33  1  0
 11 12  1  0
 11 19  1  0
 12 13  2  0
 12 18  1  0
 13 14  1  0
 14 15  2  0
 14 34  1  0
 15 16  1  0
 15 17  1  0
 16 35  1  0
 16 36  1  0
 16 37  1  0
 17 18  2  0
 17 38  1  0
 19 20  1  0
 19 39  1  0
 19 40  1  0
 20 41  1  0
 20 42  1  0
M  END

