
     RDKit          3D

 35 37  0  0  0  0  0  0  0  0999 V2000
    0.9569   -0.3746   -0.6131 C   0  0  0  0  0  0  0  0  0  0  0  0
    2.4151   -0.1546   -0.4258 C   0  0  0  0  0  0  0  0  0  0  0  0
    3.0658    0.9637   -0.4670 N   0  0  0  0  0  0  0  0  0  0  0  0
    4.3930    0.6114   -0.2290 C   0  0  0  0  0  0  0  0  0  0  0  0
    5.5515    1.3856   -0.1542 C   0  0  0  0  0  0  0  0  0  0  0  0
    6.7759    0.7357    0.1025 C   0  0  0  0  0  0  0  0  0  0  0  0
    7.9394    1.5000    0.2004 N   0  0  0  0  0  0  0  0  0  0  0  0
    9.2697    0.9276    0.1676 C   0  0  0  0  0  0  0  0  0  0  0  0
    9.7224    0.3723    1.4920 C   0  0  0  0  0  0  0  0  0  0  0  0
    9.3725    0.7441    2.7783 C   0  0  0  0  0  0  0  0  0  0  0  0
   10.0871   -0.0994    3.5720 N   0  0  0  0  0  0  0  0  0  0  0  0
   10.1837   -0.1207    5.0229 C   0  0  0  0  0  0  0  0  0  0  0  0
   11.1859    0.9099    5.5508 C   0  0  0  0  0  0  0  0  0  0  0  0
   10.8142    2.2346    5.2474 O   0  0  0  0  0  0  0  0  0  0  0  0
   10.8370   -0.9295    2.8292 N   0  0  0  0  0  0  0  0  0  0  0  0
   10.6144   -0.6532    1.5791 N   0  0  0  0  0  0  0  0  0  0  0  0
    6.8031   -0.6746    0.2765 C   0  0  0  0  0  0  0  0  0  0  0  0
    5.6414   -1.4513    0.2029 C   0  0  0  0  0  0  0  0  0  0  0  0
    4.4552   -0.7799   -0.0507 C   0  0  0  0  0  0  0  0  0  0  0  0
    3.1781   -1.2652   -0.1783 O   0  0  0  0  0  0  0  0  0  0  0  0
    0.4676    0.5891   -0.7988 H   0  0  0  0  0  0  0  0  0  0  0  0
    0.5145   -0.8432    0.2808 H   0  0  0  0  0  0  0  0  0  0  0  0
    0.7700   -1.0492   -1.4643 H   0  0  0  0  0  0  0  0  0  0  0  0
    5.5027    2.4684   -0.2913 H   0  0  0  0  0  0  0  0  0  0  0  0
    7.8619    2.4261   -0.1988 H   0  0  0  0  0  0  0  0  0  0  0  0
    9.9633    1.7259   -0.1455 H   0  0  0  0  0  0  0  0  0  0  0  0
    9.3721    0.1253   -0.5880 H   0  0  0  0  0  0  0  0  0  0  0  0
    8.6819    1.4844    3.1704 H   0  0  0  0  0  0  0  0  0  0  0  0
   10.4894   -1.1374    5.3088 H   0  0  0  0  0  0  0  0  0  0  0  0
    9.1851    0.0814    5.4386 H   0  0  0  0  0  0  0  0  0  0  0  0
   12.1943    0.6618    5.1687 H   0  0  0  0  0  0  0  0  0  0  0  0
   11.2187    0.8241    6.6494 H   0  0  0  0  0  0  0  0  0  0  0  0
   11.0404    2.4130    4.3253 H   0  0  0  0  0  0  0  0  0  0  0  0
    7.7493   -1.1749    0.4830 H   0  0  0  0  0  0  0  0  0  0  0  0
    5.6774   -2.5335    0.3387 H   0  0  0  0  0  0  0  0  0  0  0  0
  1  2  1  0
  1 21  1  0
  1 22  1  0
  1 23  1  0
  2  3  2  0
  2 20  1  0
  3  4  1  0
  4  5  2  0
  4 19  1  0
  5  6  1  0
  5 24  1  0
  6  7  1  0
  6 17  2  0
  7  8  1  0
  7 25  1  0
  8  9  1  0
  8 26  1  0
  8 27  1  0
  9 10  2  0
  9 16  1  0
 10 11  1  0
 10 28  1  0
 11 12  1  0
 11 15  1  0
 12 13  1  0
 12 29  1  0
 12 30  1  0
 13 14  1  0
 13 31  1  0
 13 32  1  0
 14 33  1  0
 15 16  2  0
 17 18  1  0
 17 34  1  0
 18 19  2  0
 18 35  1  0
 19 20  1  0
M  END

