
     RDKit          3D

 49 51  0  0  0  0  0  0  0  0999 V2000
    2.5032    1.4199   -1.1738 C   0  0  0  0  0  0  0  0  0  0  0  0
    2.2093    0.2997   -0.1694 C   0  0  0  0  0  0  0  0  0  0  0  0
    2.8839   -1.0822   -0.3804 C   0  0  1  0  0  0  0  0  0  0  0  0
    2.6173   -1.6993   -1.7749 C   0  0  0  0  0  0  0  0  0  0  0  0
    1.1585   -1.9986   -2.0575 C   0  0  0  0  0  0  0  0  0  0  0  0
    0.4431   -1.3104   -3.0479 C   0  0  0  0  0  0  0  0  0  0  0  0
   -0.9017   -1.6065   -3.2926 C   0  0  0  0  0  0  0  0  0  0  0  0
   -1.5593   -2.5858   -2.5517 C   0  0  0  0  0  0  0  0  0  0  0  0
   -0.8624   -3.2966   -1.5440 C   0  0  0  0  0  0  0  0  0  0  0  0
    0.4878   -2.9887   -1.3220 C   0  0  0  0  0  0  0  0  0  0  0  0
   -1.5268   -4.2942   -0.8305 N   0  0  0  0  0  0  0  0  0  0  0  0
   -2.9737   -4.2894   -0.8739 C   0  0  0  0  0  0  0  0  0  0  0  0
   -3.3984   -4.0526   -2.3191 C   0  0  0  0  0  0  0  0  0  0  0  0
   -2.8866   -2.8232   -2.8061 O   0  0  0  0  0  0  0  0  0  0  0  0
    4.3116   -1.1862   -0.0311 N   0  0  0  0  0  0  0  0  0  0  0  0
    5.2681   -0.4196   -0.8065 C   0  0  0  0  0  0  0  0  0  0  0  0
    4.5977   -1.1698    1.3941 C   0  0  0  0  0  0  0  0  0  0  0  0
    4.0317   -2.3564    2.1564 C   0  0  0  0  0  0  0  0  0  0  0  0
    4.1783   -3.6599    1.6536 C   0  0  0  0  0  0  0  0  0  0  0  0
    3.7039   -4.7598    2.3713 C   0  0  0  0  0  0  0  0  0  0  0  0
    3.0739   -4.5759    3.6082 C   0  0  0  0  0  0  0  0  0  0  0  0
    2.9208   -3.2841    4.1170 C   0  0  0  0  0  0  0  0  0  0  0  0
    3.3947   -2.1842    3.3928 C   0  0  0  0  0  0  0  0  0  0  0  0
    1.9016    2.3115   -0.9327 H   0  0  0  0  0  0  0  0  0  0  0  0
    2.2439    1.1297   -2.2038 H   0  0  0  0  0  0  0  0  0  0  0  0
    3.5581    1.7306   -1.1710 H   0  0  0  0  0  0  0  0  0  0  0  0
    1.1203    0.1231   -0.1586 H   0  0  0  0  0  0  0  0  0  0  0  0
    2.4560    0.6512    0.8479 H   0  0  0  0  0  0  0  0  0  0  0  0
    2.3852   -1.7519    0.3384 H   0  0  0  0  0  0  0  0  0  0  0  0
    3.2039   -2.6317   -1.8209 H   0  0  0  0  0  0  0  0  0  0  0  0
    3.0079   -1.0477   -2.5722 H   0  0  0  0  0  0  0  0  0  0  0  0
    0.9400   -0.5412   -3.6444 H   0  0  0  0  0  0  0  0  0  0  0  0
   -1.4685   -1.0794   -4.0633 H   0  0  0  0  0  0  0  0  0  0  0  0
    1.0262   -3.5494   -0.5509 H   0  0  0  0  0  0  0  0  0  0  0  0
   -1.1007   -4.5558    0.0512 H   0  0  0  0  0  0  0  0  0  0  0  0
   -3.4263   -3.5025   -0.2343 H   0  0  0  0  0  0  0  0  0  0  0  0
   -3.3617   -5.2624   -0.5299 H   0  0  0  0  0  0  0  0  0  0  0  0
   -4.4930   -3.9909   -2.4043 H   0  0  0  0  0  0  0  0  0  0  0  0
   -3.0422   -4.8884   -2.9506 H   0  0  0  0  0  0  0  0  0  0  0  0
    5.0195   -0.4589   -1.8765 H   0  0  0  0  0  0  0  0  0  0  0  0
    6.2762   -0.8537   -0.6887 H   0  0  0  0  0  0  0  0  0  0  0  0
    5.3420    0.6522   -0.5195 H   0  0  0  0  0  0  0  0  0  0  0  0
    4.2713   -0.2308    1.8963 H   0  0  0  0  0  0  0  0  0  0  0  0
    5.6971   -1.1889    1.5014 H   0  0  0  0  0  0  0  0  0  0  0  0
    4.6637   -3.7969    0.6841 H   0  0  0  0  0  0  0  0  0  0  0  0
    3.8290   -5.7679    1.9664 H   0  0  0  0  0  0  0  0  0  0  0  0
    2.7039   -5.4370    4.1709 H   0  0  0  0  0  0  0  0  0  0  0  0
    2.4266   -3.1286    5.0798 H   0  0  0  0  0  0  0  0  0  0  0  0
    3.2666   -1.1746    3.7947 H   0  0  0  0  0  0  0  0  0  0  0  0
  1  2  1  0
  1 24  1  0
  1 25  1  0
  1 26  1  0
  2  3  1  0
  2 27  1  0
  2 28  1  0
  3  4  1  0
  3 15  1  0
  3 29  1  1
  4  5  1  0
  4 30  1  0
  4 31  1  0
  5  6  2  0
  5 10  1  0
  6  7  1  0
  6 32  1  0
  7  8  2  0
  7 33  1  0
  8  9  1  0
  8 14  1  0
  9 10  2  0
  9 11  1  0
 10 34  1  0
 11 12  1  0
 11 35  1  0
 12 13  1  0
 12 36  1  0
 12 37  1  0
 13 14  1  0
 13 38  1  0
 13 39  1  0
 15 16  1  0
 15 17  1  0
 16 40  1  0
 16 41  1  0
 16 42  1  0
 17 18  1  0
 17 43  1  0
 17 44  1  0
 18 19  2  0
 18 23  1  0
 19 20  1  0
 19 45  1  0
 20 21  2  0
 20 46  1  0
 21 22  1  0
 21 47  1  0
 22 23  2  0
 22 48  1  0
 23 49  1  0
M  END

