
     RDKit          3D

 40 41  0  0  0  0  0  0  0  0999 V2000
    6.9042   -0.6444   -0.8568 C   0  0  0  0  0  0  0  0  0  0  0  0
    6.0294   -0.5537    0.4035 C   0  0  0  0  0  0  0  0  0  0  0  0
    4.8067   -1.4289    0.3755 C   0  0  0  0  0  0  0  0  0  0  0  0
    3.4916   -1.0526    0.2382 C   0  0  0  0  0  0  0  0  0  0  0  0
    2.5813   -2.1506    0.2184 C   0  0  0  0  0  0  0  0  0  0  0  0
    3.2024   -3.3770    0.3416 C   0  0  0  0  0  0  0  0  0  0  0  0
    2.6385   -4.7220    0.3638 C   0  0  0  0  0  0  0  0  0  0  0  0
    3.4430   -5.7844    0.2206 N   0  0  0  0  0  0  0  0  0  0  0  0
    2.6492   -6.8560    0.2896 N   0  0  0  0  0  0  0  0  0  0  0  0
    3.2172   -8.1798    0.1560 C   0  0  0  0  0  0  0  0  0  0  0  0
    1.3427   -6.5188    0.4689 C   0  0  0  0  0  0  0  0  0  0  0  0
    1.2784   -5.1365    0.5317 C   0  0  0  0  0  0  0  0  0  0  0  0
    0.0366   -4.3197    0.7447 C   0  0  0  0  0  0  0  0  0  0  0  0
   -1.0477   -5.1329    1.2724 N   0  0  0  0  0  0  0  0  0  0  0  0
   -2.3091   -4.4327    1.4221 C   0  0  0  0  0  0  0  0  0  0  0  0
   -3.3425   -5.3311    2.0770 C   0  0  0  0  0  0  0  0  0  0  0  0
   -2.8845   -5.6679    3.3675 O   0  0  0  0  0  0  0  0  0  0  0  0
   -3.7238   -6.5493    4.0628 C   0  0  0  0  0  0  0  0  0  0  0  0
    4.9344   -3.1669    0.4816 S   0  0  0  0  0  0  0  0  0  0  0  0
    7.7782    0.0221   -0.7765 H   0  0  0  0  0  0  0  0  0  0  0  0
    6.3344   -0.3570   -1.7546 H   0  0  0  0  0  0  0  0  0  0  0  0
    7.2743   -1.6702   -1.0127 H   0  0  0  0  0  0  0  0  0  0  0  0
    5.6918    0.4865    0.5450 H   0  0  0  0  0  0  0  0  0  0  0  0
    6.6435   -0.7980    1.2887 H   0  0  0  0  0  0  0  0  0  0  0  0
    3.1818   -0.0089    0.1511 H   0  0  0  0  0  0  0  0  0  0  0  0
    1.5050   -2.0325    0.0978 H   0  0  0  0  0  0  0  0  0  0  0  0
    3.6693   -8.3079   -0.8400 H   0  0  0  0  0  0  0  0  0  0  0  0
    2.4244   -8.9274    0.2912 H   0  0  0  0  0  0  0  0  0  0  0  0
    3.9969   -8.3364    0.9168 H   0  0  0  0  0  0  0  0  0  0  0  0
    0.5504   -7.2590    0.5446 H   0  0  0  0  0  0  0  0  0  0  0  0
   -0.2998   -3.8875   -0.2180 H   0  0  0  0  0  0  0  0  0  0  0  0
    0.2763   -3.4449    1.3904 H   0  0  0  0  0  0  0  0  0  0  0  0
   -0.7827   -5.5133    2.1815 H   0  0  0  0  0  0  0  0  0  0  0  0
   -2.6838   -4.1333    0.4267 H   0  0  0  0  0  0  0  0  0  0  0  0
   -2.2231   -3.4984    2.0229 H   0  0  0  0  0  0  0  0  0  0  0  0
   -3.4811   -6.2464    1.4651 H   0  0  0  0  0  0  0  0  0  0  0  0
   -4.3209   -4.8095    2.1315 H   0  0  0  0  0  0  0  0  0  0  0  0
   -3.2709   -6.7437    5.0462 H   0  0  0  0  0  0  0  0  0  0  0  0
   -3.8442   -7.5159    3.5320 H   0  0  0  0  0  0  0  0  0  0  0  0
   -4.7353   -6.1218    4.2202 H   0  0  0  0  0  0  0  0  0  0  0  0
  1  2  1  0
  1 20  1  0
  1 21  1  0
  1 22  1  0
  2  3  1  0
  2 23  1  0
  2 24  1  0
  3  4  2  0
  3 19  1  0
  4  5  1  0
  4 25  1  0
  5  6  2  0
  5 26  1  0
  6  7  1  0
  6 19  1  0
  7  8  2  0
  7 12  1  0
  8  9  1  0
  9 10  1  0
  9 11  1  0
 10 27  1  0
 10 28  1  0
 10 29  1  0
 11 12  2  0
 11 30  1  0
 12 13  1  0
 13 14  1  0
 13 31  1  0
 13 32  1  0
 14 15  1  0
 14 33  1  0
 15 16  1  0
 15 34  1  0
 15 35  1  0
 16 17  1  0
 16 36  1  0
 16 37  1  0
 17 18  1  0
 18 38  1  0
 18 39  1  0
 18 40  1  0
M  END

