
     RDKit          3D

 28 29  0  0  0  0  0  0  0  0999 V2000
    3.1961    1.4254   -0.0586 N   0  0  0  0  0  0  0  0  0  0  0  0
    2.6726    0.0715    0.1660 C   0  0  1  0  0  0  0  0  0  0  0  0
    1.6070    0.2093    0.4310 H   0  0  0  0  0  0  0  0  0  0  0  0
    2.6948   -0.8660   -1.0601 C   0  0  0  0  0  0  0  0  0  0  0  0
    4.0698   -1.1398   -1.6743 C   0  0  0  0  0  0  0  0  0  0  0  0
    3.9815   -1.8713   -2.8801 O   0  0  0  0  0  0  0  0  0  0  0  0
    3.3465   -0.5136    1.3867 C   0  0  0  0  0  0  0  0  0  0  0  0
    3.5622   -1.8153    1.7937 C   0  0  0  0  0  0  0  0  0  0  0  0
    4.1763   -1.7565    3.0923 C   0  0  0  0  0  0  0  0  0  0  0  0
    4.6292   -2.7282    4.0063 C   0  0  0  0  0  0  0  0  0  0  0  0
    5.1963   -2.2944    5.1987 C   0  0  0  0  0  0  0  0  0  0  0  0
    5.8207   -3.5908    6.4629 Br  0  0  0  0  0  0  0  0  0  0  0  0
    5.3316   -0.9259    5.5168 C   0  0  0  0  0  0  0  0  0  0  0  0
    4.8898    0.0477    4.6252 C   0  0  0  0  0  0  0  0  0  0  0  0
    4.3127   -0.3739    3.4203 C   0  0  0  0  0  0  0  0  0  0  0  0
    3.7952    0.3441    2.3681 N   0  0  0  0  0  0  0  0  0  0  0  0
    3.7599    1.3500    2.2476 H   0  0  0  0  0  0  0  0  0  0  0  0
    2.6170    1.9269   -0.7309 H   0  0  0  0  0  0  0  0  0  0  0  0
    4.1404    1.3951   -0.4447 H   0  0  0  0  0  0  0  0  0  0  0  0
    2.0567   -0.4289   -1.8473 H   0  0  0  0  0  0  0  0  0  0  0  0
    2.2228   -1.8262   -0.7826 H   0  0  0  0  0  0  0  0  0  0  0  0
    4.7297   -1.6362   -0.9373 H   0  0  0  0  0  0  0  0  0  0  0  0
    4.5545   -0.1859   -1.9416 H   0  0  0  0  0  0  0  0  0  0  0  0
    3.6333   -2.7488   -2.6743 H   0  0  0  0  0  0  0  0  0  0  0  0
    3.3047   -2.7154    1.2404 H   0  0  0  0  0  0  0  0  0  0  0  0
    4.5388   -3.7935    3.7874 H   0  0  0  0  0  0  0  0  0  0  0  0
    5.7838   -0.6357    6.4662 H   0  0  0  0  0  0  0  0  0  0  0  0
    4.9912    1.1083    4.8679 H   0  0  0  0  0  0  0  0  0  0  0  0
  1  2  1  0
  1 18  1  0
  1 19  1  0
  2  3  1  1
  2  4  1  0
  2  7  1  0
  4  5  1  0
  4 20  1  0
  4 21  1  0
  5  6  1  0
  5 22  1  0
  5 23  1  0
  6 24  1  0
  7  8  2  0
  7 16  1  0
  8  9  1  0
  8 25  1  0
  9 10  2  0
  9 15  1  0
 10 11  1  0
 10 26  1  0
 11 12  1  0
 11 13  2  0
 13 14  1  0
 13 27  1  0
 14 15  2  0
 14 28  1  0
 15 16  1  0
 16 17  1  0
M  END

