
     RDKit          3D

 33 33  0  0  0  0  0  0  0  0999 V2000
    1.3197    0.1162   -0.5220 C   0  0  0  0  0  0  0  0  0  0  0  0
    2.6565   -0.1439   -0.1605 O   0  0  0  0  0  0  0  0  0  0  0  0
    2.8280   -0.6788    1.1368 C   0  0  1  0  0  0  0  0  0  0  0  0
    2.4094   -2.1600    1.1866 C   0  0  0  0  0  0  0  0  0  0  0  0
    1.7854   -2.5977    2.1274 O   0  0  0  0  0  0  0  0  0  0  0  0
    2.8253   -3.0514    0.0100 C   0  0  0  0  0  0  0  0  0  0  0  0
    3.8006   -4.1453    0.4037 C   0  0  0  0  0  0  0  0  0  0  0  0
    3.4592   -5.1113    1.3654 C   0  0  0  0  0  0  0  0  0  0  0  0
    4.3563   -6.1196    1.7227 C   0  0  0  0  0  0  0  0  0  0  0  0
    5.6132   -6.1696    1.1125 C   0  0  0  0  0  0  0  0  0  0  0  0
    6.8418   -7.5495    1.5919 Br  0  0  0  0  0  0  0  0  0  0  0  0
    5.9780   -5.2213    0.1553 C   0  0  0  0  0  0  0  0  0  0  0  0
    5.0695   -4.2160   -0.1896 C   0  0  0  0  0  0  0  0  0  0  0  0
    4.3047   -0.4875    1.5540 C   0  0  1  0  0  0  0  0  0  0  0  0
    4.6955    0.9925    1.4547 C   0  0  0  0  0  0  0  0  0  0  0  0
    4.5811   -1.0435    2.9564 C   0  0  0  0  0  0  0  0  0  0  0  0
    1.3298    0.5546   -1.5302 H   0  0  0  0  0  0  0  0  0  0  0  0
    0.8410    0.8324    0.1734 H   0  0  0  0  0  0  0  0  0  0  0  0
    0.6992   -0.8014   -0.5460 H   0  0  0  0  0  0  0  0  0  0  0  0
    2.1789   -0.1529    1.8655 H   0  0  0  0  0  0  0  0  0  0  0  0
    3.2417   -2.4348   -0.7968 H   0  0  0  0  0  0  0  0  0  0  0  0
    1.8932   -3.5090   -0.3653 H   0  0  0  0  0  0  0  0  0  0  0  0
    2.4821   -5.0611    1.8499 H   0  0  0  0  0  0  0  0  0  0  0  0
    4.0795   -6.8645    2.4707 H   0  0  0  0  0  0  0  0  0  0  0  0
    6.9606   -5.2653   -0.3175 H   0  0  0  0  0  0  0  0  0  0  0  0
    5.3576   -3.4762   -0.9416 H   0  0  0  0  0  0  0  0  0  0  0  0
    4.9184   -1.0501    0.8267 H   0  0  0  0  0  0  0  0  0  0  0  0
    4.1188    1.5989    2.1741 H   0  0  0  0  0  0  0  0  0  0  0  0
    4.5067    1.3869    0.4471 H   0  0  0  0  0  0  0  0  0  0  0  0
    5.7641    1.1249    1.6873 H   0  0  0  0  0  0  0  0  0  0  0  0
    3.9618   -0.5345    3.7138 H   0  0  0  0  0  0  0  0  0  0  0  0
    5.6367   -0.8820    3.2254 H   0  0  0  0  0  0  0  0  0  0  0  0
    4.3795   -2.1220    3.0334 H   0  0  0  0  0  0  0  0  0  0  0  0
  1  2  1  0
  1 17  1  0
  1 18  1  0
  1 19  1  0
  2  3  1  0
  3  4  1  0
  3 14  1  0
  3 20  1  1
  4  5  2  0
  4  6  1  0
  6  7  1  0
  6 21  1  0
  6 22  1  0
  7  8  2  0
  7 13  1  0
  8  9  1  0
  8 23  1  0
  9 10  2  0
  9 24  1  0
 10 11  1  0
 10 12  1  0
 12 13  2  0
 12 25  1  0
 13 26  1  0
 14 15  1  0
 14 16  1  0
 14 27  1  6
 15 28  1  0
 15 29  1  0
 15 30  1  0
 16 31  1  0
 16 32  1  0
 16 33  1  0
M  END

