
     RDKit          3D

 32 33  0  0  0  0  0  0  0  0999 V2000
    2.1619   -2.2197    0.5460 C   0  0  0  0  0  0  0  0  0  0  0  0
    2.7706   -0.4391    0.3891 Si  0  0  1  0  0  4  0  0  0  0  0  0
    3.1731   -0.0741   -1.4187 C   0  0  0  0  0  0  0  0  0  0  0  0
    1.4664    0.7520    1.0286 C   0  0  0  0  0  0  0  0  0  0  0  0
    4.1021   -0.1585    1.3868 O   0  0  0  0  0  0  0  0  0  0  0  0
    5.4024   -0.6779    1.3584 C   0  0  2  0  0  0  0  0  0  0  0  0
    5.5336   -2.1224    1.8647 C   0  0  0  0  0  0  0  0  0  0  0  0
    6.6185   -2.3167    2.9377 C   0  0  0  0  0  0  0  0  0  0  0  0
    7.9222   -1.5942    2.5885 C   0  0  0  0  0  0  0  0  0  0  0  0
    7.6946   -0.0777    2.5302 C   0  0  0  0  0  0  0  0  0  0  0  0
    6.4989    0.3125    1.6770 C   0  0  1  0  0  0  0  0  0  0  0  0
    6.3267   -0.1983    0.2607 C   0  0  0  0  0  0  0  0  0  0  0  0
    1.2435   -2.3661   -0.0479 H   0  0  0  0  0  0  0  0  0  0  0  0
    1.9264   -2.4704    1.5933 H   0  0  0  0  0  0  0  0  0  0  0  0
    2.9094   -2.9445    0.1845 H   0  0  0  0  0  0  0  0  0  0  0  0
    2.2731   -0.2056   -2.0434 H   0  0  0  0  0  0  0  0  0  0  0  0
    3.9513   -0.7483   -1.8111 H   0  0  0  0  0  0  0  0  0  0  0  0
    3.5235    0.9626   -1.5515 H   0  0  0  0  0  0  0  0  0  0  0  0
    0.5242    0.6520    0.4644 H   0  0  0  0  0  0  0  0  0  0  0  0
    1.8076    1.7962    0.9389 H   0  0  0  0  0  0  0  0  0  0  0  0
    1.2479    0.5612    2.0918 H   0  0  0  0  0  0  0  0  0  0  0  0
    5.7309   -2.7988    1.0137 H   0  0  0  0  0  0  0  0  0  0  0  0
    4.5591   -2.4185    2.2794 H   0  0  0  0  0  0  0  0  0  0  0  0
    6.7977   -3.3944    3.0873 H   0  0  0  0  0  0  0  0  0  0  0  0
    6.2491   -1.9254    3.9031 H   0  0  0  0  0  0  0  0  0  0  0  0
    8.3096   -1.9654    1.6217 H   0  0  0  0  0  0  0  0  0  0  0  0
    8.7010   -1.8227    3.3346 H   0  0  0  0  0  0  0  0  0  0  0  0
    8.6018    0.4359    2.1650 H   0  0  0  0  0  0  0  0  0  0  0  0
    7.5235    0.2898    3.5582 H   0  0  0  0  0  0  0  0  0  0  0  0
    6.1313    1.3317    1.8354 H   0  0  0  0  0  0  0  0  0  0  0  0
    7.0613   -0.9046   -0.1411 H   0  0  0  0  0  0  0  0  0  0  0  0
    5.9226    0.5005   -0.4753 H   0  0  0  0  0  0  0  0  0  0  0  0
  1  2  1  0
  1 13  1  0
  1 14  1  0
  1 15  1  0
  2  3  1  0
  2  4  1  0
  2  5  1  1
  3 16  1  0
  3 17  1  0
  3 18  1  0
  4 19  1  0
  4 20  1  0
  4 21  1  0
  6  5  1  6
  6  7  1  0
  6 11  1  0
  6 12  1  0
  7  8  1  0
  7 22  1  0
  7 23  1  0
  8  9  1  0
  8 24  1  0
  8 25  1  0
  9 10  1  0
  9 26  1  0
  9 27  1  0
 10 11  1  0
 10 28  1  0
 10 29  1  0
 11 12  1  0
 11 30  1  6
 12 31  1  0
 12 32  1  0
M  END

