
     RDKit          3D

 48 50  0  0  0  0  0  0  0  0999 V2000
    2.6046    0.7717    2.2941 C   0  0  0  0  0  0  0  0  0  0  0  0
    2.3163   -0.6841    2.5554 C   0  0  0  0  0  0  0  0  0  0  0  0
    1.3988   -1.0951    3.5321 C   0  0  0  0  0  0  0  0  0  0  0  0
    1.1860   -2.4657    3.7141 C   0  0  0  0  0  0  0  0  0  0  0  0
    1.8834   -3.3750    2.9291 C   0  0  0  0  0  0  0  0  0  0  0  0
    2.7865   -2.8620    1.9718 C   0  0  0  0  0  0  0  0  0  0  0  0
    3.4896   -3.7814    1.1807 N   0  0  0  0  0  0  0  0  0  0  0  0
    4.4182   -3.5732    0.1852 C   0  0  0  0  0  0  0  0  0  0  0  0
    4.8364   -2.5177   -0.2286 O   0  0  0  0  0  0  0  0  0  0  0  0
    4.9483   -4.8767   -0.4329 C   0  0  0  0  0  0  0  0  0  0  0  0
    4.3584   -6.0166    0.1579 O   0  0  0  0  0  0  0  0  0  0  0  0
    4.7203   -7.2674   -0.2596 C   0  0  0  0  0  0  0  0  0  0  0  0
    5.6575   -7.5195   -1.2701 C   0  0  0  0  0  0  0  0  0  0  0  0
    5.9578   -8.8398   -1.6176 C   0  0  0  0  0  0  0  0  0  0  0  0
    5.3566   -9.9426   -0.9897 C   0  0  0  0  0  0  0  0  0  0  0  0
    5.7046  -11.3598   -1.4592 C   0  0  1  0  0  0  0  0  0  0  0  0
    7.2272  -11.6517   -1.4227 C   0  0  0  0  0  0  0  0  0  0  0  0
    7.7521  -11.9101   -0.0054 C   0  0  0  0  0  0  0  0  0  0  0  0
    7.0031  -13.0715    0.6587 C   0  0  0  0  0  0  0  0  0  0  0  0
    5.4902  -12.8198    0.6679 C   0  0  0  0  0  0  0  0  0  0  0  0
    4.9552  -12.5025   -0.7389 C   0  0  0  0  0  0  0  0  0  0  0  0
    4.4100   -9.6571    0.0102 C   0  0  0  0  0  0  0  0  0  0  0  0
    4.0956   -8.3482    0.3747 C   0  0  0  0  0  0  0  0  0  0  0  0
    2.9891   -1.5626    1.7983 N   0  0  0  0  0  0  0  0  0  0  0  0
    2.0232    1.4339    2.9514 H   0  0  0  0  0  0  0  0  0  0  0  0
    2.3770    1.0188    1.2448 H   0  0  0  0  0  0  0  0  0  0  0  0
    3.6776    0.9755    2.4384 H   0  0  0  0  0  0  0  0  0  0  0  0
    0.8641   -0.3588    4.1354 H   0  0  0  0  0  0  0  0  0  0  0  0
    0.4777   -2.8216    4.4668 H   0  0  0  0  0  0  0  0  0  0  0  0
    1.7406   -4.4521    3.0459 H   0  0  0  0  0  0  0  0  0  0  0  0
    3.2939   -4.7623    1.3563 H   0  0  0  0  0  0  0  0  0  0  0  0
    6.0453   -4.8752   -0.3023 H   0  0  0  0  0  0  0  0  0  0  0  0
    4.7407   -4.8291   -1.5170 H   0  0  0  0  0  0  0  0  0  0  0  0
    6.1547   -6.7040   -1.7958 H   0  0  0  0  0  0  0  0  0  0  0  0
    6.6821   -9.0048   -2.4197 H   0  0  0  0  0  0  0  0  0  0  0  0
    5.4003  -11.4000   -2.5212 H   0  0  0  0  0  0  0  0  0  0  0  0
    7.7893  -10.8310   -1.8954 H   0  0  0  0  0  0  0  0  0  0  0  0
    7.4174  -12.5471   -2.0420 H   0  0  0  0  0  0  0  0  0  0  0  0
    7.6320  -10.9967    0.6049 H   0  0  0  0  0  0  0  0  0  0  0  0
    8.8344  -12.1204   -0.0399 H   0  0  0  0  0  0  0  0  0  0  0  0
    7.3697  -13.2325    1.6865 H   0  0  0  0  0  0  0  0  0  0  0  0
    7.2162  -14.0041    0.1032 H   0  0  0  0  0  0  0  0  0  0  0  0
    5.2748  -11.9844    1.3558 H   0  0  0  0  0  0  0  0  0  0  0  0
    4.9580  -13.6967    1.0744 H   0  0  0  0  0  0  0  0  0  0  0  0
    3.8730  -12.2947   -0.7052 H   0  0  0  0  0  0  0  0  0  0  0  0
    5.0640  -13.4087   -1.3609 H   0  0  0  0  0  0  0  0  0  0  0  0
    3.8907  -10.4668    0.5237 H   0  0  0  0  0  0  0  0  0  0  0  0
    3.3593   -8.1482    1.1562 H   0  0  0  0  0  0  0  0  0  0  0  0
  1  2  1  0
  1 25  1  0
  1 26  1  0
  1 27  1  0
  2  3  2  0
  2 24  1  0
  3  4  1  0
  3 28  1  0
  4  5  2  0
  4 29  1  0
  5  6  1  0
  5 30  1  0
  6  7  1  0
  6 24  2  0
  7  8  1  0
  7 31  1  0
  8  9  2  0
  8 10  1  0
 10 11  1  0
 10 32  1  0
 10 33  1  0
 11 12  1  0
 12 13  2  0
 12 23  1  0
 13 14  1  0
 13 34  1  0
 14 15  2  0
 14 35  1  0
 15 16  1  0
 15 22  1  0
 16 17  1  0
 16 21  1  0
 16 36  1  6
 17 18  1  0
 17 37  1  0
 17 38  1  0
 18 19  1  0
 18 39  1  0
 18 40  1  0
 19 20  1  0
 19 41  1  0
 19 42  1  0
 20 21  1  0
 20 43  1  0
 20 44  1  0
 21 45  1  0
 21 46  1  0
 22 23  2  0
 22 47  1  0
 23 48  1  0
M  END

