
     RDKit          3D

 26 26  0  0  0  0  0  0  0  0999 V2000
    1.0399    0.2206   -0.4150 C   0  0  0  0  0  0  0  0  0  0  0  0
    2.3369   -0.1620    0.1089 N   0  0  0  0  0  0  0  0  0  0  0  0
    3.0855   -1.0194   -0.8042 C   0  0  0  0  0  0  0  0  0  0  0  0
    3.0183    0.7423    0.9221 C   0  0  0  0  0  0  0  0  0  0  0  0
    2.7354    2.1273    0.8780 C   0  0  0  0  0  0  0  0  0  0  0  0
    3.3938    3.0440    1.6884 C   0  0  0  0  0  0  0  0  0  0  0  0
    4.3883    2.6352    2.5956 C   0  0  0  0  0  0  0  0  0  0  0  0
    5.0656    3.6330    3.4108 C   0  0  0  0  0  0  0  0  0  0  0  0
    6.0478    3.4297    4.3066 C   0  0  0  0  0  0  0  0  0  0  0  0
    6.6176    4.5476    5.0417 N   0  0  0  0  0  0  0  0  0  0  0  0
    6.1964    5.6780    4.8356 O   0  0  0  0  0  0  0  0  0  0  0  0
    7.5052    4.2641    5.8372 O   0  0  0  0  0  0  0  0  0  0  0  0
    4.6632    1.2534    2.6766 C   0  0  0  0  0  0  0  0  0  0  0  0
    3.9922    0.3355    1.8810 C   0  0  0  0  0  0  0  0  0  0  0  0
    4.3283   -1.5152    2.2318 Br  0  0  0  0  0  0  0  0  0  0  0  0
    0.5084   -0.6873   -0.7408 H   0  0  0  0  0  0  0  0  0  0  0  0
    1.0979    0.9008   -1.2909 H   0  0  0  0  0  0  0  0  0  0  0  0
    0.4352    0.7054    0.3644 H   0  0  0  0  0  0  0  0  0  0  0  0
    2.5525   -1.9721   -0.9555 H   0  0  0  0  0  0  0  0  0  0  0  0
    4.0802   -1.2493   -0.4093 H   0  0  0  0  0  0  0  0  0  0  0  0
    3.2102   -0.5327   -1.7933 H   0  0  0  0  0  0  0  0  0  0  0  0
    1.9957    2.4931    0.1659 H   0  0  0  0  0  0  0  0  0  0  0  0
    3.1482    4.1057    1.6045 H   0  0  0  0  0  0  0  0  0  0  0  0
    4.7486    4.6731    3.2867 H   0  0  0  0  0  0  0  0  0  0  0  0
    6.5136    2.4855    4.5814 H   0  0  0  0  0  0  0  0  0  0  0  0
    5.3891    0.8795    3.3995 H   0  0  0  0  0  0  0  0  0  0  0  0
  1  2  1  0
  1 16  1  0
  1 17  1  0
  1 18  1  0
  2  3  1  0
  2  4  1  0
  3 19  1  0
  3 20  1  0
  3 21  1  0
  4  5  2  0
  4 14  1  0
  5  6  1  0
  5 22  1  0
  6  7  2  0
  6 23  1  0
  7  8  1  0
  7 13  1  0
  8  9  2  0
  8 24  1  0
  9 10  1  0
  9 25  1  0
 10 11  2  0
 10 12  1  0
 13 14  2  0
 13 26  1  0
 14 15  1  0
M  CHG  2  10   1  12  -1
M  END

