
     RDKit          3D

 39 40  0  0  0  0  0  0  0  0999 V2000
    1.1194    0.3862    0.1916 C   0  0  0  0  0  0  0  0  0  0  0  0
    2.6111    0.0966    0.0157 C   0  0  0  0  0  0  0  0  0  0  0  0
    2.9381   -1.2785   -0.6087 C   0  0  1  0  0  0  0  0  0  0  0  0
    2.5478   -1.3320   -2.1019 C   0  0  0  0  0  0  0  0  0  0  0  0
    2.7949   -2.6645   -2.7774 C   0  0  0  0  0  0  0  0  0  0  0  0
    2.0274   -3.7939   -2.4441 C   0  0  0  0  0  0  0  0  0  0  0  0
    2.2631   -5.0282   -3.0526 C   0  0  0  0  0  0  0  0  0  0  0  0
    3.2732   -5.1593   -4.0120 C   0  0  0  0  0  0  0  0  0  0  0  0
    4.0406   -4.0454   -4.3586 C   0  0  0  0  0  0  0  0  0  0  0  0
    3.8004   -2.8104   -3.7460 C   0  0  0  0  0  0  0  0  0  0  0  0
    4.3478   -1.6061   -0.4666 N   0  0  0  0  0  0  0  0  0  0  0  0
    4.9253   -2.1626    0.6590 C   0  0  0  0  0  0  0  0  0  0  0  0
    6.2673   -2.6015    0.6168 C   0  0  0  0  0  0  0  0  0  0  0  0
    6.8714   -3.1560    1.7377 C   0  0  0  0  0  0  0  0  0  0  0  0
    6.2053   -3.3131    2.9689 C   0  0  0  0  0  0  0  0  0  0  0  0
    6.9129   -3.9166    4.1549 C   0  0  0  0  0  0  0  0  0  0  0  0
    4.8734   -2.8723    2.9884 C   0  0  0  0  0  0  0  0  0  0  0  0
    3.7100   -3.0400    4.7794 I   0  0  0  0  0  0  0  0  0  0  0  0
    4.2330   -2.3120    1.8795 C   0  0  0  0  0  0  0  0  0  0  0  0
    0.9647    1.3495    0.7023 H   0  0  0  0  0  0  0  0  0  0  0  0
    0.6289   -0.3911    0.8021 H   0  0  0  0  0  0  0  0  0  0  0  0
    0.5832    0.4396   -0.7695 H   0  0  0  0  0  0  0  0  0  0  0  0
    3.1075    0.1507    0.9978 H   0  0  0  0  0  0  0  0  0  0  0  0
    3.0870    0.8790   -0.6016 H   0  0  0  0  0  0  0  0  0  0  0  0
    2.3372   -2.0456   -0.0796 H   0  0  0  0  0  0  0  0  0  0  0  0
    3.1006   -0.5389   -2.6348 H   0  0  0  0  0  0  0  0  0  0  0  0
    1.4808   -1.0723   -2.1823 H   0  0  0  0  0  0  0  0  0  0  0  0
    1.2310   -3.7046   -1.6994 H   0  0  0  0  0  0  0  0  0  0  0  0
    1.6532   -5.8931   -2.7787 H   0  0  0  0  0  0  0  0  0  0  0  0
    3.4572   -6.1253   -4.4889 H   0  0  0  0  0  0  0  0  0  0  0  0
    4.8281   -4.1339   -5.1116 H   0  0  0  0  0  0  0  0  0  0  0  0
    4.3980   -1.9403   -4.0360 H   0  0  0  0  0  0  0  0  0  0  0  0
    4.8571   -1.7645   -1.3270 H   0  0  0  0  0  0  0  0  0  0  0  0
    6.8351   -2.5037   -0.3129 H   0  0  0  0  0  0  0  0  0  0  0  0
    7.9118   -3.4864    1.6649 H   0  0  0  0  0  0  0  0  0  0  0  0
    7.9467   -4.1865    3.8933 H   0  0  0  0  0  0  0  0  0  0  0  0
    6.4049   -4.8271    4.5142 H   0  0  0  0  0  0  0  0  0  0  0  0
    6.9502   -3.2185    5.0078 H   0  0  0  0  0  0  0  0  0  0  0  0
    3.1964   -1.9932    1.9687 H   0  0  0  0  0  0  0  0  0  0  0  0
  1  2  1  0
  1 20  1  0
  1 21  1  0
  1 22  1  0
  2  3  1  0
  2 23  1  0
  2 24  1  0
  3  4  1  0
  3 11  1  0
  3 25  1  1
  4  5  1  0
  4 26  1  0
  4 27  1  0
  5  6  2  0
  5 10  1  0
  6  7  1  0
  6 28  1  0
  7  8  2  0
  7 29  1  0
  8  9  1  0
  8 30  1  0
  9 10  2  0
  9 31  1  0
 10 32  1  0
 11 12  1  0
 11 33  1  0
 12 13  2  0
 12 19  1  0
 13 14  1  0
 13 34  1  0
 14 15  2  0
 14 35  1  0
 15 16  1  0
 15 17  1  0
 16 36  1  0
 16 37  1  0
 16 38  1  0
 17 18  1  0
 17 19  2  0
 19 39  1  0
M  END

