
     RDKit          3D

 30 31  0  0  0  0  0  0  0  0999 V2000
    1.5216    1.0820   -1.0123 C   0  0  0  0  0  0  0  0  0  0  0  0
    2.4193    0.2728   -0.2812 O   0  0  0  0  0  0  0  0  0  0  0  0
    3.0235    0.7768    0.8205 C   0  0  0  0  0  0  0  0  0  0  0  0
    2.8058    2.0655    1.3183 C   0  0  0  0  0  0  0  0  0  0  0  0
    3.4957    2.5122    2.4531 C   0  0  0  0  0  0  0  0  0  0  0  0
    3.1422    4.3055    3.0272 Br  0  0  0  0  0  0  0  0  0  0  0  0
    4.4133    1.6956    3.1254 C   0  0  0  0  0  0  0  0  0  0  0  0
    5.1989    2.1754    4.3236 C   0  0  1  0  0  0  0  0  0  0  0  0
    5.2428    0.8772    5.6486 Cl  0  0  0  0  0  0  0  0  0  0  0  0
    6.5832    2.5934    3.9867 C   0  0  0  0  0  0  0  0  0  0  0  0
    7.4114    2.3778    2.9164 C   0  0  0  0  0  0  0  0  0  0  0  0
    8.6465    3.0408    3.2104 C   0  0  0  0  0  0  0  0  0  0  0  0
    8.4667    3.6068    4.4425 C   0  0  0  0  0  0  0  0  0  0  0  0
    9.6004    4.6398    5.5067 Br  0  0  0  0  0  0  0  0  0  0  0  0
    7.2330    3.3513    4.9225 O   0  0  0  0  0  0  0  0  0  0  0  0
    4.6066    0.3987    2.6159 C   0  0  0  0  0  0  0  0  0  0  0  0
    3.9415   -0.0742    1.4896 C   0  0  0  0  0  0  0  0  0  0  0  0
    4.2353   -1.3202    1.0258 O   0  0  0  0  0  0  0  0  0  0  0  0
    3.2029   -2.2976    1.0577 C   0  0  0  0  0  0  0  0  0  0  0  0
    1.1751    0.4753   -1.8592 H   0  0  0  0  0  0  0  0  0  0  0  0
    2.0163    1.9902   -1.3996 H   0  0  0  0  0  0  0  0  0  0  0  0
    0.6498    1.3807   -0.4035 H   0  0  0  0  0  0  0  0  0  0  0  0
    2.1074    2.7408    0.8280 H   0  0  0  0  0  0  0  0  0  0  0  0
    4.6813    3.0102    4.8094 H   0  0  0  0  0  0  0  0  0  0  0  0
    7.1650    1.8163    2.0188 H   0  0  0  0  0  0  0  0  0  0  0  0
    9.5412    3.0952    2.5960 H   0  0  0  0  0  0  0  0  0  0  0  0
    5.2934   -0.2812    3.1219 H   0  0  0  0  0  0  0  0  0  0  0  0
    3.6522   -3.2376    0.7085 H   0  0  0  0  0  0  0  0  0  0  0  0
    2.3637   -2.0296    0.3973 H   0  0  0  0  0  0  0  0  0  0  0  0
    2.8265   -2.4426    2.0865 H   0  0  0  0  0  0  0  0  0  0  0  0
  1  2  1  0
  1 20  1  0
  1 21  1  0
  1 22  1  0
  2  3  1  0
  3  4  2  0
  3 17  1  0
  4  5  1  0
  4 23  1  0
  5  6  1  0
  5  7  2  0
  7  8  1  0
  7 16  1  0
  8  9  1  0
  8 10  1  0
  8 24  1  1
 10 11  2  0
 10 15  1  0
 11 12  1  0
 11 25  1  0
 12 13  2  0
 12 26  1  0
 13 14  1  0
 13 15  1  0
 16 17  2  0
 16 27  1  0
 17 18  1  0
 18 19  1  0
 19 28  1  0
 19 29  1  0
 19 30  1  0
M  END

