
     RDKit          3D

 54 56  0  0  0  0  0  0  0  0999 V2000
    7.0267    5.3107    2.6069 C   0  0  0  0  0  0  0  0  0  0  0  0
    5.8079    5.0954    1.6958 C   0  0  1  0  0  0  0  0  0  0  0  0
    4.5939    4.8439    2.4842 N   0  0  0  0  0  0  0  0  0  0  0  0
    4.4151    3.6006    3.0811 C   0  0  0  0  0  0  0  0  0  0  0  0
    5.2928    2.7489    3.1080 O   0  0  0  0  0  0  0  0  0  0  0  0
    3.1773    3.4123    3.6476 N   0  0  0  0  0  0  0  0  0  0  0  0
    2.8144    2.1601    4.2975 C   0  0  0  0  0  0  0  0  0  0  0  0
    3.4109    1.9676    5.7001 C   0  0  0  0  0  0  0  0  0  0  0  0
    3.0611    3.0600    6.7131 C   0  0  0  0  0  0  0  0  0  0  0  0
    1.5862    3.0694    7.1210 C   0  0  0  0  0  0  0  0  0  0  0  0
    0.7978    2.2508    6.6656 O   0  0  0  0  0  0  0  0  0  0  0  0
    1.1799    4.0337    8.0160 N   0  0  0  0  0  0  0  0  0  0  0  0
   -0.2196    4.0956    8.4229 C   0  0  0  0  0  0  0  0  0  0  0  0
   -0.3376    3.8643    9.9287 C   0  0  0  0  0  0  0  0  0  0  0  0
    0.6243    4.7375   10.7083 C   0  0  0  0  0  0  0  0  0  0  0  0
    0.4161    4.9988   12.0727 C   0  0  0  0  0  0  0  0  0  0  0  0
    1.3008    5.7927   12.8013 C   0  0  0  0  0  0  0  0  0  0  0  0
    2.4194    6.3449   12.1672 C   0  0  0  0  0  0  0  0  0  0  0  0
    2.6366    6.0932   10.8133 C   0  0  0  0  0  0  0  0  0  0  0  0
    1.7521    5.2912   10.0754 C   0  0  0  0  0  0  0  0  0  0  0  0
    2.0249    5.0643    8.5955 C   0  0  0  0  0  0  0  0  0  0  0  0
    5.5743    6.2813    0.7731 C   0  0  0  0  0  0  0  0  0  0  0  0
    5.1074    7.5096    1.2700 C   0  0  0  0  0  0  0  0  0  0  0  0
    4.9203    8.6043    0.4214 C   0  0  0  0  0  0  0  0  0  0  0  0
    5.2062    8.4830   -0.9347 C   0  0  0  0  0  0  0  0  0  0  0  0
    5.0361    9.5171   -1.7632 F   0  0  0  0  0  0  0  0  0  0  0  0
    5.6749    7.2671   -1.4406 C   0  0  0  0  0  0  0  0  0  0  0  0
    5.9417    7.1632   -2.7453 F   0  0  0  0  0  0  0  0  0  0  0  0
    5.8545    6.1752   -0.5972 C   0  0  0  0  0  0  0  0  0  0  0  0
    7.1741    4.4216    3.2349 H   0  0  0  0  0  0  0  0  0  0  0  0
    6.8828    6.1897    3.2549 H   0  0  0  0  0  0  0  0  0  0  0  0
    7.9329    5.4696    2.0018 H   0  0  0  0  0  0  0  0  0  0  0  0
    6.0163    4.2074    1.0738 H   0  0  0  0  0  0  0  0  0  0  0  0
    3.7561    5.3004    2.1392 H   0  0  0  0  0  0  0  0  0  0  0  0
    2.5295    4.1883    3.6918 H   0  0  0  0  0  0  0  0  0  0  0  0
    3.1572    1.3326    3.6574 H   0  0  0  0  0  0  0  0  0  0  0  0
    1.7183    2.1135    4.3534 H   0  0  0  0  0  0  0  0  0  0  0  0
    4.5062    1.9149    5.6021 H   0  0  0  0  0  0  0  0  0  0  0  0
    3.0653    0.9937    6.0814 H   0  0  0  0  0  0  0  0  0  0  0  0
    3.3372    4.0505    6.3100 H   0  0  0  0  0  0  0  0  0  0  0  0
    3.6772    2.9283    7.6194 H   0  0  0  0  0  0  0  0  0  0  0  0
   -0.7648    3.3354    7.8519 H   0  0  0  0  0  0  0  0  0  0  0  0
   -0.6285    5.0897    8.1593 H   0  0  0  0  0  0  0  0  0  0  0  0
   -0.1293    2.8006   10.1439 H   0  0  0  0  0  0  0  0  0  0  0  0
   -1.3724    4.0516   10.2602 H   0  0  0  0  0  0  0  0  0  0  0  0
   -0.4611    4.5698   12.5664 H   0  0  0  0  0  0  0  0  0  0  0  0
    1.1187    5.9836   13.8619 H   0  0  0  0  0  0  0  0  0  0  0  0
    3.1205    6.9682   12.7279 H   0  0  0  0  0  0  0  0  0  0  0  0
    3.5115    6.5242   10.3161 H   0  0  0  0  0  0  0  0  0  0  0  0
    3.0813    4.7992    8.4660 H   0  0  0  0  0  0  0  0  0  0  0  0
    1.8783    6.0244    8.0566 H   0  0  0  0  0  0  0  0  0  0  0  0
    4.8890    7.6167    2.3350 H   0  0  0  0  0  0  0  0  0  0  0  0
    4.5576    9.5644    0.7946 H   0  0  0  0  0  0  0  0  0  0  0  0
    6.2156    5.2403   -1.0318 H   0  0  0  0  0  0  0  0  0  0  0  0
  1  2  1  0
  1 30  1  0
  1 31  1  0
  1 32  1  0
  2  3  1  0
  2 22  1  0
  2 33  1  6
  3  4  1  0
  3 34  1  0
  4  5  2  0
  4  6  1  0
  6  7  1  0
  6 35  1  0
  7  8  1  0
  7 36  1  0
  7 37  1  0
  8  9  1  0
  8 38  1  0
  8 39  1  0
  9 10  1  0
  9 40  1  0
  9 41  1  0
 10 11  2  0
 10 12  1  0
 12 13  1  0
 12 21  1  0
 13 14  1  0
 13 42  1  0
 13 43  1  0
 14 15  1  0
 14 44  1  0
 14 45  1  0
 15 16  2  0
 15 20  1  0
 16 17  1  0
 16 46  1  0
 17 18  2  0
 17 47  1  0
 18 19  1  0
 18 48  1  0
 19 20  2  0
 19 49  1  0
 20 21  1  0
 21 50  1  0
 21 51  1  0
 22 23  2  0
 22 29  1  0
 23 24  1  0
 23 52  1  0
 24 25  2  0
 24 53  1  0
 25 26  1  0
 25 27  1  0
 27 28  1  0
 27 29  2  0
 29 54  1  0
M  END

