
     RDKit          3D

 50 54  0  0  0  0  0  0  0  0999 V2000
    2.5160    2.3370   -1.3888 F   0  0  0  0  0  0  0  0  0  0  0  0
    3.2710    1.2278   -1.3222 C   0  0  0  0  0  0  0  0  0  0  0  0
    2.6799   -0.0004   -1.6691 C   0  0  0  0  0  0  0  0  0  0  0  0
    3.4230   -1.1763   -1.6121 C   0  0  0  0  0  0  0  0  0  0  0  0
    4.7638   -1.1011   -1.2012 C   0  0  0  0  0  0  0  0  0  0  0  0
    5.7069   -2.0963   -1.0503 N   0  0  0  0  0  0  0  0  0  0  0  0
    6.8057   -1.5020   -0.6443 C   0  0  0  0  0  0  0  0  0  0  0  0
    8.0428   -2.2174   -0.2908 C   0  0  0  0  0  0  0  0  0  0  0  0
    7.8801   -3.5326    0.2385 C   0  0  0  0  0  0  0  0  0  0  0  0
    8.8516   -4.3003    0.6624 N   0  0  0  0  0  0  0  0  0  0  0  0
   10.1254   -3.8410    0.5191 C   0  0  0  0  0  0  0  0  0  0  0  0
   11.1874   -4.6951    0.9247 C   0  0  0  0  0  0  0  0  0  0  0  0
   12.5055   -4.3526    0.7187 C   0  0  0  0  0  0  0  0  0  0  0  0
   12.8036   -3.1312    0.0704 C   0  0  0  0  0  0  0  0  0  0  0  0
   14.4760   -2.7362   -0.2628 Cl  0  0  0  0  0  0  0  0  0  0  0  0
   11.8054   -2.2590   -0.3151 C   0  0  0  0  0  0  0  0  0  0  0  0
   10.4401   -2.5679   -0.0614 C   0  0  0  0  0  0  0  0  0  0  0  0
    9.3453   -1.6999   -0.4287 C   0  0  0  0  0  0  0  0  0  0  0  0
    9.5604   -0.4443   -0.9702 N   0  0  0  0  0  0  0  0  0  0  0  0
   10.5008    0.5842   -0.5349 C   0  0  0  0  0  0  0  0  0  0  0  0
    9.7880    1.8267    0.0132 C   0  0  2  0  0  0  0  0  0  0  0  0
   10.7415    3.0184    0.1795 C   0  0  0  0  0  0  0  0  0  0  0  0
   10.0181    4.2197    0.8037 C   0  0  0  0  0  0  0  0  0  0  0  0
    9.3134    3.8291    2.1091 C   0  0  0  0  0  0  0  0  0  0  0  0
    8.4089    2.6130    1.8934 C   0  0  0  0  0  0  0  0  0  0  0  0
    9.1807    1.5290    1.3024 N   0  0  0  0  0  0  0  0  0  0  0  0
    6.6353   -0.1206   -0.5328 N   0  0  0  0  0  0  0  0  0  0  0  0
    7.2793    0.5196   -0.0841 H   0  0  0  0  0  0  0  0  0  0  0  0
    5.3252    0.1590   -0.8656 C   0  0  0  0  0  0  0  0  0  0  0  0
    4.5955    1.3515   -0.9161 C   0  0  0  0  0  0  0  0  0  0  0  0
    1.6331   -0.0011   -1.9786 H   0  0  0  0  0  0  0  0  0  0  0  0
    2.9823   -2.1396   -1.8750 H   0  0  0  0  0  0  0  0  0  0  0  0
    6.8565   -3.9122    0.3251 H   0  0  0  0  0  0  0  0  0  0  0  0
   10.9107   -5.6450    1.3858 H   0  0  0  0  0  0  0  0  0  0  0  0
   13.3182   -5.0150    1.0213 H   0  0  0  0  0  0  0  0  0  0  0  0
   12.0847   -1.3519   -0.8450 H   0  0  0  0  0  0  0  0  0  0  0  0
    8.7927   -0.0880   -1.5285 H   0  0  0  0  0  0  0  0  0  0  0  0
   11.1559    0.8876   -1.3714 H   0  0  0  0  0  0  0  0  0  0  0  0
   11.1385    0.1821    0.2623 H   0  0  0  0  0  0  0  0  0  0  0  0
    9.0219    2.1343   -0.7454 H   0  0  0  0  0  0  0  0  0  0  0  0
   11.1686    3.2920   -0.7999 H   0  0  0  0  0  0  0  0  0  0  0  0
   11.5780    2.7071    0.8296 H   0  0  0  0  0  0  0  0  0  0  0  0
    9.2693    4.6028    0.0858 H   0  0  0  0  0  0  0  0  0  0  0  0
   10.7288    5.0437    0.9792 H   0  0  0  0  0  0  0  0  0  0  0  0
    8.7219    4.6735    2.4998 H   0  0  0  0  0  0  0  0  0  0  0  0
   10.0666    3.5734    2.8740 H   0  0  0  0  0  0  0  0  0  0  0  0
    7.5440    2.9191    1.2574 H   0  0  0  0  0  0  0  0  0  0  0  0
    7.9913    2.2679    2.8525 H   0  0  0  0  0  0  0  0  0  0  0  0
    8.7206    0.6241    1.3467 H   0  0  0  0  0  0  0  0  0  0  0  0
    5.0073    2.3286   -0.6599 H   0  0  0  0  0  0  0  0  0  0  0  0
  1  2  1  0
  2  3  2  0
  2 30  1  0
  3  4  1  0
  3 31  1  0
  4  5  2  0
  4 32  1  0
  5  6  1  0
  5 29  1  0
  6  7  2  0
  7  8  1  0
  7 27  1  0
  8  9  2  0
  8 18  1  0
  9 10  1  0
  9 33  1  0
 10 11  2  0
 11 12  1  0
 11 17  1  0
 12 13  2  0
 12 34  1  0
 13 14  1  0
 13 35  1  0
 14 15  1  0
 14 16  2  0
 16 17  1  0
 16 36  1  0
 17 18  2  0
 18 19  1  0
 19 20  1  0
 19 37  1  0
 20 21  1  0
 20 38  1  0
 20 39  1  0
 21 22  1  0
 21 26  1  0
 21 40  1  6
 22 23  1  0
 22 41  1  0
 22 42  1  0
 23 24  1  0
 23 43  1  0
 23 44  1  0
 24 25  1  0
 24 45  1  0
 24 46  1  0
 25 26  1  0
 25 47  1  0
 25 48  1  0
 26 49  1  0
 27 28  1  0
 27 29  1  0
 29 30  2  0
 30 50  1  0
M  END

