
     RDKit          3D

 38 40  0  0  0  0  0  0  0  0999 V2000
    0.9870    0.2765    0.2426 N   0  0  0  0  0  0  0  0  0  0  0  0
    2.3779    0.1567    0.1663 N   0  0  0  0  0  0  0  0  0  0  0  0
    3.1339    1.2763   -0.1675 C   0  0  0  0  0  0  0  0  0  0  0  0
    2.2087    2.7548   -0.4622 S   0  0  0  0  0  0  0  0  0  0  0  0
    3.6134    3.8937   -0.8540 C   0  0  0  0  0  0  0  0  0  0  0  0
    3.0558    5.2616   -1.1473 C   0  0  0  0  0  0  0  0  0  0  0  0
    2.8789    6.2017   -0.1199 C   0  0  0  0  0  0  0  0  0  0  0  0
    2.3536    7.4682   -0.3812 C   0  0  0  0  0  0  0  0  0  0  0  0
    1.9932    7.8023   -1.6898 C   0  0  0  0  0  0  0  0  0  0  0  0
    1.3368    9.3871   -2.0287 Cl  0  0  0  0  0  0  0  0  0  0  0  0
    2.1547    6.8834   -2.7307 C   0  0  0  0  0  0  0  0  0  0  0  0
    2.6815    5.6213   -2.4517 C   0  0  0  0  0  0  0  0  0  0  0  0
    4.4259    1.2404   -0.2570 N   0  0  0  0  0  0  0  0  0  0  0  0
    5.1084    0.0832   -0.0227 N   0  0  0  0  0  0  0  0  0  0  0  0
    4.4579   -1.0047    0.2961 C   0  0  0  0  0  0  0  0  0  0  0  0
    5.0487   -2.2099    0.5503 N   0  0  0  0  0  0  0  0  0  0  0  0
    6.3913   -2.5978    0.5426 C   0  0  0  0  0  0  0  0  0  0  0  0
    6.6801   -3.9429    0.8499 C   0  0  0  0  0  0  0  0  0  0  0  0
    7.9917   -4.4088    0.8642 C   0  0  0  0  0  0  0  0  0  0  0  0
    9.0380   -3.5289    0.5694 C   0  0  0  0  0  0  0  0  0  0  0  0
   10.8387   -4.1598    0.5868 Br  0  0  0  0  0  0  0  0  0  0  0  0
    8.7688   -2.1938    0.2631 C   0  0  0  0  0  0  0  0  0  0  0  0
    7.4539   -1.7230    0.2478 C   0  0  0  0  0  0  0  0  0  0  0  0
    2.9806   -1.0620    0.4226 C   0  0  0  0  0  0  0  0  0  0  0  0
    2.3447   -2.0625    0.7185 O   0  0  0  0  0  0  0  0  0  0  0  0
    0.6938   -0.0115    1.1792 H   0  0  0  0  0  0  0  0  0  0  0  0
    0.5732   -0.3991   -0.4044 H   0  0  0  0  0  0  0  0  0  0  0  0
    4.1595    3.4740   -1.7089 H   0  0  0  0  0  0  0  0  0  0  0  0
    4.2951    3.8972    0.0065 H   0  0  0  0  0  0  0  0  0  0  0  0
    3.1602    5.9414    0.9042 H   0  0  0  0  0  0  0  0  0  0  0  0
    2.2240    8.1969    0.4206 H   0  0  0  0  0  0  0  0  0  0  0  0
    1.8711    7.1593   -3.7476 H   0  0  0  0  0  0  0  0  0  0  0  0
    2.8072    4.9032   -3.2666 H   0  0  0  0  0  0  0  0  0  0  0  0
    4.3653   -2.9280    0.7788 H   0  0  0  0  0  0  0  0  0  0  0  0
    5.8633   -4.6329    1.0809 H   0  0  0  0  0  0  0  0  0  0  0  0
    8.1997   -5.4528    1.1040 H   0  0  0  0  0  0  0  0  0  0  0  0
    9.5878   -1.5098    0.0337 H   0  0  0  0  0  0  0  0  0  0  0  0
    7.2375   -0.6837    0.0096 H   0  0  0  0  0  0  0  0  0  0  0  0
  1  2  1  0
  1 26  1  0
  1 27  1  0
  2  3  1  0
  2 24  1  0
  3  4  2  0
  3 13  1  0
  4  5  1  0
  5  6  1  0
  5 28  1  0
  5 29  1  0
  6  7  2  0
  6 12  1  0
  7  8  1  0
  7 30  1  0
  8  9  2  0
  8 31  1  0
  9 10  1  0
  9 11  1  0
 11 12  2  0
 11 32  1  0
 12 33  1  0
 13 14  2  0
 14 15  1  0
 15 16  1  0
 15 24  2  0
 16 17  1  0
 16 34  1  0
 17 18  2  0
 17 23  1  0
 18 19  1  0
 18 35  1  0
 19 20  2  0
 19 36  1  0
 20 21  1  0
 20 22  1  0
 22 23  2  0
 22 37  1  0
 23 38  1  0
 24 25  1  0
M  CHG  2   4   1  25  -1
M  END

