
     RDKit          3D

 52 53  0  0  0  0  0  0  0  0999 V2000
    4.4339    1.4116   -2.1134 C   0  0  0  0  0  0  0  0  0  0  0  0
    4.1246   -0.0718   -1.9094 C   0  0  1  0  0  0  0  0  0  0  0  0
    4.7233   -0.9558   -3.0201 C   0  0  0  0  0  0  0  0  0  0  0  0
    4.6083   -0.5439   -0.5477 C   0  0  0  0  0  0  0  0  0  0  0  0
    5.3329    0.0735    0.1946 O   0  0  0  0  0  0  0  0  0  0  0  0
    4.1107   -1.7718   -0.2499 O   0  0  0  0  0  0  0  0  0  0  0  0
    4.5542   -2.3752    0.9591 C   0  0  0  0  0  0  0  0  0  0  0  0
    5.7806   -3.2794    0.7082 C   0  0  1  0  0  0  0  0  0  0  0  0
    5.4332   -4.5593   -0.0554 C   0  0  0  0  0  0  0  0  0  0  0  0
    4.2776   -5.6128    0.8456 Cl  0  0  0  0  0  0  0  0  0  0  0  0
    6.7001   -2.5776   -0.1511 O   0  0  0  0  0  0  0  0  0  0  0  0
    7.8153   -2.0812    0.5231 C   0  0  2  0  0  0  0  0  0  0  0  0
    9.0496   -2.6999    0.0123 N   0  0  0  0  0  0  0  0  0  0  0  0
    9.0143   -4.0090   -0.2608 N   0  0  0  0  0  0  0  0  0  0  0  0
   10.0721   -4.6081   -0.6883 C   0  0  0  0  0  0  0  0  0  0  0  0
   11.3702   -3.9350   -0.8898 C   0  0  0  0  0  0  0  0  0  0  0  0
   12.3839   -4.4635   -1.2885 O   0  0  0  0  0  0  0  0  0  0  0  0
   11.3040   -2.5794   -0.5573 N   0  0  0  0  0  0  0  0  0  0  0  0
   12.1572   -2.0312   -0.6503 H   0  0  0  0  0  0  0  0  0  0  0  0
   10.1955   -1.8919   -0.0877 C   0  0  0  0  0  0  0  0  0  0  0  0
   10.2078   -0.7171    0.1988 O   0  0  0  0  0  0  0  0  0  0  0  0
    7.5745   -2.3705    2.0277 C   0  0  2  0  0  0  0  0  0  0  0  0
    7.1735   -1.4637    2.5057 H   0  0  0  0  0  0  0  0  0  0  0  0
    8.7252   -2.7285    2.6785 F   0  0  0  0  0  0  0  0  0  0  0  0
    6.5192   -3.4986    2.0458 C   0  0  2  0  0  0  0  0  0  0  0  0
    5.8494   -3.4137    2.9118 H   0  0  0  0  0  0  0  0  0  0  0  0
    7.1596   -4.7606    2.0944 O   0  0  0  0  0  0  0  0  0  0  0  0
    7.1456   -5.4272    3.2858 C   0  0  0  0  0  0  0  0  0  0  0  0
    6.5815   -5.0122    4.2639 O   0  0  0  0  0  0  0  0  0  0  0  0
    7.9487   -6.7119    3.1908 C   0  0  1  0  0  0  0  0  0  0  0  0
    9.4524   -6.3735    3.2162 C   0  0  0  0  0  0  0  0  0  0  0  0
    7.5513   -7.6865    4.3000 C   0  0  0  0  0  0  0  0  0  0  0  0
    4.0433    1.7530   -3.0844 H   0  0  0  0  0  0  0  0  0  0  0  0
    5.5197    1.5916   -2.0935 H   0  0  0  0  0  0  0  0  0  0  0  0
    3.9839    2.0302   -1.3228 H   0  0  0  0  0  0  0  0  0  0  0  0
    3.0312   -0.2279   -1.9117 H   0  0  0  0  0  0  0  0  0  0  0  0
    5.8230   -0.8902   -3.0244 H   0  0  0  0  0  0  0  0  0  0  0  0
    4.3581   -0.6239   -4.0043 H   0  0  0  0  0  0  0  0  0  0  0  0
    4.4441   -2.0108   -2.8876 H   0  0  0  0  0  0  0  0  0  0  0  0
    3.7236   -2.9834    1.3412 H   0  0  0  0  0  0  0  0  0  0  0  0
    4.8000   -1.5893    1.6871 H   0  0  0  0  0  0  0  0  0  0  0  0
    6.3474   -5.1343   -0.2328 H   0  0  0  0  0  0  0  0  0  0  0  0
    4.9628   -4.2944   -1.0103 H   0  0  0  0  0  0  0  0  0  0  0  0
    7.9279   -1.0051    0.3400 H   0  0  0  0  0  0  0  0  0  0  0  0
   10.0073   -5.6759   -0.9112 H   0  0  0  0  0  0  0  0  0  0  0  0
    7.7142   -7.1488    2.2053 H   0  0  0  0  0  0  0  0  0  0  0  0
    9.7341   -5.9249    4.1823 H   0  0  0  0  0  0  0  0  0  0  0  0
    9.7152   -5.6626    2.4200 H   0  0  0  0  0  0  0  0  0  0  0  0
   10.0492   -7.2885    3.0787 H   0  0  0  0  0  0  0  0  0  0  0  0
    7.7341   -7.2444    5.2910 H   0  0  0  0  0  0  0  0  0  0  0  0
    8.1362   -8.6157    4.2195 H   0  0  0  0  0  0  0  0  0  0  0  0
    6.4833   -7.9464    4.2447 H   0  0  0  0  0  0  0  0  0  0  0  0
  1  2  1  0
  1 33  1  0
  1 34  1  0
  1 35  1  0
  2  3  1  0
  2  4  1  0
  2 36  1  1
  3 37  1  0
  3 38  1  0
  3 39  1  0
  4  5  2  0
  4  6  1  0
  6  7  1  0
  8  7  1  1
  7 40  1  0
  7 41  1  0
  8  9  1  0
  8 11  1  0
  8 25  1  0
  9 10  1  0
  9 42  1  0
  9 43  1  0
 11 12  1  0
 12 13  1  0
 12 22  1  0
 12 44  1  1
 13 14  1  0
 13 20  1  0
 14 15  2  0
 15 16  1  0
 15 45  1  0
 16 17  2  0
 16 18  1  0
 18 19  1  0
 18 20  1  0
 20 21  2  0
 22 23  1  1
 22 24  1  0
 22 25  1  0
 25 26  1  1
 25 27  1  0
 27 28  1  0
 28 29  2  0
 28 30  1  0
 30 31  1  0
 30 32  1  0
 30 46  1  6
 31 47  1  0
 31 48  1  0
 31 49  1  0
 32 50  1  0
 32 51  1  0
 32 52  1  0
M  END

