
     RDKit          3D

 60 65  0  0  0  0  0  0  0  0999 V2000
   10.9555   -2.5336   -3.1000 N   0  0  0  0  0  0  0  0  0  0  0  0
   11.2141   -4.1644   -3.4763 S   0  0  1  0  0  0  0  0  0  0  0  0
   11.7886   -4.1764   -4.8237 O   0  0  0  0  0  0  0  0  0  0  0  0
   11.8792   -4.7924   -2.3311 O   0  0  0  0  0  0  0  0  0  0  0  0
    9.5605   -4.8414   -3.5731 C   0  0  0  0  0  0  0  0  0  0  0  0
    8.8360   -4.7259   -4.7620 C   0  0  0  0  0  0  0  0  0  0  0  0
    7.5462   -5.2476   -4.8481 C   0  0  0  0  0  0  0  0  0  0  0  0
    6.9790   -5.8935   -3.7318 C   0  0  0  0  0  0  0  0  0  0  0  0
    5.6781   -6.4215   -3.7243 N   0  0  0  0  0  0  0  0  0  0  0  0
    4.8206   -6.5961   -4.7782 C   0  0  0  0  0  0  0  0  0  0  0  0
    5.0540   -6.3033   -5.9375 O   0  0  0  0  0  0  0  0  0  0  0  0
    3.4615   -7.2093   -4.3720 C   0  0  0  0  0  0  0  0  0  0  0  0
    3.5394   -8.6339   -4.0504 N   0  0  0  0  0  0  0  0  0  0  0  0
    3.1506   -9.6859   -4.8884 C   0  0  0  0  0  0  0  0  0  0  0  0
    3.3658  -10.9212   -4.3708 C   0  0  0  0  0  0  0  0  0  0  0  0
    4.0993  -10.8301   -2.7786 S   0  0  0  0  0  0  0  0  0  0  0  0
    4.0566   -9.0376   -2.8313 C   0  0  0  0  0  0  0  0  0  0  0  0
    4.4421   -8.2861   -1.9514 O   0  0  0  0  0  0  0  0  0  0  0  0
    3.1130  -12.1577   -5.1951 C   0  0  2  0  0  0  0  0  0  0  0  0
    3.3329  -13.4680   -4.4964 C   0  0  0  0  0  0  0  0  0  0  0  0
    4.4170  -14.2036   -4.0949 C   0  0  0  0  0  0  0  0  0  0  0  0
    3.8942  -15.3667   -3.4387 C   0  0  0  0  0  0  0  0  0  0  0  0
    2.5350  -15.2519   -3.4888 C   0  0  0  0  0  0  0  0  0  0  0  0
    2.1830  -14.1091   -4.1264 O   0  0  0  0  0  0  0  0  0  0  0  0
    3.8552  -11.9682   -6.5564 C   0  0  2  0  0  0  0  0  0  0  0  0
    5.3602  -11.6739   -6.4252 C   0  0  0  0  0  0  0  0  0  0  0  0
    6.1461  -12.2277   -5.6976 O   0  0  0  0  0  0  0  0  0  0  0  0
    5.6903  -10.6644   -7.3377 N   0  0  0  0  0  0  0  0  0  0  0  0
    7.0202  -10.1765   -7.5457 C   0  0  0  0  0  0  0  0  0  0  0  0
    8.0727  -11.0740   -7.7632 C   0  0  0  0  0  0  0  0  0  0  0  0
    9.3666  -10.5933   -7.9628 C   0  0  0  0  0  0  0  0  0  0  0  0
    9.5864   -9.2171   -7.9502 C   0  0  0  0  0  0  0  0  0  0  0  0
   10.8257   -8.7548   -8.1482 F   0  0  0  0  0  0  0  0  0  0  0  0
    8.5485   -8.3121   -7.7351 C   0  0  0  0  0  0  0  0  0  0  0  0
    7.2568   -8.7954   -7.5268 C   0  0  0  0  0  0  0  0  0  0  0  0
    4.5786  -10.1880   -8.0542 C   0  0  0  0  0  0  0  0  0  0  0  0
    4.6120   -9.4255   -8.9817 O   0  0  0  0  0  0  0  0  0  0  0  0
    3.3362  -10.8026   -7.4146 C   0  0  2  0  0  0  0  0  0  0  0  0
    2.4172   -9.4669   -6.4762 S   0  0  0  0  0  0  0  0  0  0  0  0
    7.7290   -6.0153   -2.5454 C   0  0  0  0  0  0  0  0  0  0  0  0
    9.0164   -5.4939   -2.4636 C   0  0  0  0  0  0  0  0  0  0  0  0
   11.4685   -1.9550   -3.7657 H   0  0  0  0  0  0  0  0  0  0  0  0
   11.2393   -2.3436   -2.1388 H   0  0  0  0  0  0  0  0  0  0  0  0
    9.2888   -4.2344   -5.6252 H   0  0  0  0  0  0  0  0  0  0  0  0
    6.9729   -5.1662   -5.7684 H   0  0  0  0  0  0  0  0  0  0  0  0
    5.3607   -6.8196   -2.8361 H   0  0  0  0  0  0  0  0  0  0  0  0
    2.7918   -7.0774   -5.2288 H   0  0  0  0  0  0  0  0  0  0  0  0
    3.0505   -6.6826   -3.4968 H   0  0  0  0  0  0  0  0  0  0  0  0
    2.0391  -12.1545   -5.4549 H   0  0  0  0  0  0  0  0  0  0  0  0
    5.4557  -13.9351   -4.2626 H   0  0  0  0  0  0  0  0  0  0  0  0
    4.4613  -16.1799   -2.9908 H   0  0  0  0  0  0  0  0  0  0  0  0
    1.7171  -15.8737   -3.1340 H   0  0  0  0  0  0  0  0  0  0  0  0
    3.7642  -12.9035   -7.1353 H   0  0  0  0  0  0  0  0  0  0  0  0
    7.8853  -12.1480   -7.7666 H   0  0  0  0  0  0  0  0  0  0  0  0
   10.2063  -11.2701   -8.1301 H   0  0  0  0  0  0  0  0  0  0  0  0
    8.7622   -7.2422   -7.7224 H   0  0  0  0  0  0  0  0  0  0  0  0
    6.4391   -8.0947   -7.3477 H   0  0  0  0  0  0  0  0  0  0  0  0
    2.6230  -11.0968   -8.1953 H   0  0  0  0  0  0  0  0  0  0  0  0
    7.2963   -6.5353   -1.6865 H   0  0  0  0  0  0  0  0  0  0  0  0
    9.6084   -5.6019   -1.5534 H   0  0  0  0  0  0  0  0  0  0  0  0
  2  1  1  1
  1 42  1  0
  1 43  1  0
  2  3  2  0
  2  4  2  0
  2  5  1  0
  5  6  2  0
  5 41  1  0
  6  7  1  0
  6 44  1  0
  7  8  2  0
  7 45  1  0
  8  9  1  0
  8 40  1  0
  9 10  1  0
  9 46  1  0
 10 11  2  0
 10 12  1  0
 12 13  1  0
 12 47  1  0
 12 48  1  0
 13 14  1  0
 13 17  1  0
 14 15  2  0
 14 39  1  0
 15 16  1  0
 15 19  1  0
 16 17  2  0
 17 18  1  0
 19 20  1  0
 19 25  1  0
 19 49  1  6
 20 21  2  0
 20 24  1  0
 21 22  1  0
 21 50  1  0
 22 23  2  0
 22 51  1  0
 23 24  1  0
 23 52  1  0
 25 26  1  0
 25 38  1  0
 25 53  1  6
 26 27  2  0
 26 28  1  0
 28 29  1  0
 28 36  1  0
 29 30  2  0
 29 35  1  0
 30 31  1  0
 30 54  1  0
 31 32  2  0
 31 55  1  0
 32 33  1  0
 32 34  1  0
 34 35  2  0
 34 56  1  0
 35 57  1  0
 36 37  2  0
 36 38  1  0
 38 39  1  0
 38 58  1  6
 40 41  2  0
 40 59  1  0
 41 60  1  0
M  CHG  2  16   1  18  -1
M  END

