
     RDKit          3D

 33 33  0  0  0  0  0  0  0  0999 V2000
    1.2391    2.8277   -0.4617 C   0  0  0  0  0  0  0  0  0  0  0  0
    2.5843    2.4575   -0.6242 O   0  0  0  0  0  0  0  0  0  0  0  0
    2.8984    1.1102   -1.0008 C   0  0  1  0  0  0  0  0  0  0  0  0
    2.4136    0.1126    0.0639 C   0  0  0  0  0  0  0  0  0  0  0  0
    2.2922    0.7626   -2.3725 C   0  0  0  0  0  0  0  0  0  0  0  0
    4.4403    1.0859   -1.0423 C   0  0  0  0  0  0  0  0  0  0  0  0
    5.0767    2.1503   -1.9435 C   0  0  0  0  0  0  0  0  0  0  0  0
    6.5274    2.1464   -1.8682 N   0  0  0  0  0  0  0  0  0  0  0  0
    7.1531    2.7085   -0.8062 N   0  0  0  0  0  0  0  0  0  0  0  0
    8.4562    2.5650   -1.0199 C   0  0  0  0  0  0  0  0  0  0  0  0
    9.4660    3.0895   -0.0499 C   0  0  0  0  0  0  0  0  0  0  0  0
    8.6728    1.8694   -2.2412 C   0  0  0  0  0  0  0  0  0  0  0  0
   10.4901    1.3072   -3.1268 I   0  0  0  0  0  0  0  0  0  0  0  0
    7.4059    1.6066   -2.7583 C   0  0  0  0  0  0  0  0  0  0  0  0
    6.9986    1.0214   -3.9522 N   0  0  0  0  0  0  0  0  0  0  0  0
    1.2357    3.8904   -0.1773 H   0  0  0  0  0  0  0  0  0  0  0  0
    0.7282    2.2606    0.3394 H   0  0  0  0  0  0  0  0  0  0  0  0
    0.6452    2.7226   -1.3896 H   0  0  0  0  0  0  0  0  0  0  0  0
    1.3149    0.0585    0.1069 H   0  0  0  0  0  0  0  0  0  0  0  0
    2.7870    0.4047    1.0575 H   0  0  0  0  0  0  0  0  0  0  0  0
    2.7829   -0.9002   -0.1599 H   0  0  0  0  0  0  0  0  0  0  0  0
    1.1944    0.6983   -2.3259 H   0  0  0  0  0  0  0  0  0  0  0  0
    2.6597   -0.2160   -2.7194 H   0  0  0  0  0  0  0  0  0  0  0  0
    2.5527    1.5194   -3.1279 H   0  0  0  0  0  0  0  0  0  0  0  0
    4.7726    0.0800   -1.3514 H   0  0  0  0  0  0  0  0  0  0  0  0
    4.8184    1.2503   -0.0210 H   0  0  0  0  0  0  0  0  0  0  0  0
    4.7271    3.1436   -1.6336 H   0  0  0  0  0  0  0  0  0  0  0  0
    4.8110    2.0088   -3.0017 H   0  0  0  0  0  0  0  0  0  0  0  0
    8.9492    3.5588    0.7986 H   0  0  0  0  0  0  0  0  0  0  0  0
   10.1239    3.8393   -0.5198 H   0  0  0  0  0  0  0  0  0  0  0  0
   10.1145    2.2845    0.3333 H   0  0  0  0  0  0  0  0  0  0  0  0
    7.7914    0.7626   -4.5345 H   0  0  0  0  0  0  0  0  0  0  0  0
    6.3814    0.2195   -3.8375 H   0  0  0  0  0  0  0  0  0  0  0  0
  1  2  1  0
  1 16  1  0
  1 17  1  0
  1 18  1  0
  3  2  1  1
  3  4  1  0
  3  5  1  0
  3  6  1  0
  4 19  1  0
  4 20  1  0
  4 21  1  0
  5 22  1  0
  5 23  1  0
  5 24  1  0
  6  7  1  0
  6 25  1  0
  6 26  1  0
  7  8  1  0
  7 27  1  0
  7 28  1  0
  8  9  1  0
  8 14  1  0
  9 10  2  0
 10 11  1  0
 10 12  1  0
 11 29  1  0
 11 30  1  0
 11 31  1  0
 12 13  1  0
 12 14  2  0
 14 15  1  0
 15 32  1  0
 15 33  1  0
M  END

