
     RDKit          3D

 57 58  0  0  0  0  0  0  0  0999 V2000
    1.8704   -0.4406    0.0813 C   0  0  0  0  0  0  0  0  0  0  0  0
    2.9449   -0.3456   -0.8860 N   0  0  0  0  0  0  0  0  0  0  0  0
    2.5749   -0.9038   -2.1742 C   0  0  0  0  0  0  0  0  0  0  0  0
    3.5424    0.9778   -0.9871 C   0  0  0  0  0  0  0  0  0  0  0  0
    5.0499    0.8727   -1.2797 C   0  0  0  0  0  0  0  0  0  0  0  0
    5.6772    2.1590   -1.6262 N   0  0  0  0  0  0  0  0  0  0  0  0
    5.4617    2.6017   -2.8999 C   0  0  0  0  0  0  0  0  0  0  0  0
    4.7935    1.9553   -3.7012 O   0  0  0  0  0  0  0  0  0  0  0  0
    6.0284    3.9763   -3.3786 C   0  0  0  0  0  0  0  0  0  0  0  0
    6.5785    4.8118   -2.6664 O   0  0  0  0  0  0  0  0  0  0  0  0
    5.8110    4.1299   -4.6955 N   0  0  0  0  0  0  0  0  0  0  0  0
    6.1888    5.3059   -5.4456 C   0  0  0  0  0  0  0  0  0  0  0  0
    6.5939    4.9168   -6.8714 C   0  0  0  0  0  0  0  0  0  0  0  0
    5.5544    4.1316   -7.5307 N   0  0  0  0  0  0  0  0  0  0  0  0
    4.4365    4.9048   -8.0801 C   0  0  0  0  0  0  0  0  0  0  0  0
    4.7427    5.5021   -9.4605 C   0  0  0  0  0  0  0  0  0  0  0  0
    5.1518    4.4325  -10.3622 N   0  0  0  0  0  0  0  0  0  0  0  0
    6.3282    3.7219   -9.8761 C   0  0  0  0  0  0  0  0  0  0  0  0
    6.0123    3.1311   -8.4966 C   0  0  0  0  0  0  0  0  0  0  0  0
    6.6054    2.7629   -0.6673 C   0  0  1  0  0  0  0  0  0  0  0  0
    5.9267    3.1123    0.6882 C   0  0  0  0  0  0  0  0  0  0  0  0
    7.0337    3.2602    1.7251 C   0  0  0  0  0  0  0  0  0  0  0  0
    8.0672    1.7886    1.4092 S   0  0  2  0  0  0  0  0  0  0  0  0
    7.3060    0.6161    1.8766 O   0  0  0  0  0  0  0  0  0  0  0  0
    9.4598    1.9961    1.8174 O   0  0  0  0  0  0  0  0  0  0  0  0
    7.8649    1.8864   -0.4102 C   0  0  0  0  0  0  0  0  0  0  0  0
    1.5471   -1.4897    0.1795 H   0  0  0  0  0  0  0  0  0  0  0  0
    0.9700    0.1595   -0.1905 H   0  0  0  0  0  0  0  0  0  0  0  0
    2.2141   -0.1050    1.0725 H   0  0  0  0  0  0  0  0  0  0  0  0
    2.3321   -1.9739   -2.0706 H   0  0  0  0  0  0  0  0  0  0  0  0
    3.4047   -0.8129   -2.8902 H   0  0  0  0  0  0  0  0  0  0  0  0
    1.6925   -0.3961   -2.6285 H   0  0  0  0  0  0  0  0  0  0  0  0
    3.4014    1.5038   -0.0299 H   0  0  0  0  0  0  0  0  0  0  0  0
    3.0571    1.5993   -1.7677 H   0  0  0  0  0  0  0  0  0  0  0  0
    5.2055    0.1770   -2.1161 H   0  0  0  0  0  0  0  0  0  0  0  0
    5.5591    0.4586   -0.3985 H   0  0  0  0  0  0  0  0  0  0  0  0
    5.2939    3.3970   -5.1801 H   0  0  0  0  0  0  0  0  0  0  0  0
    7.0207    5.8031   -4.9247 H   0  0  0  0  0  0  0  0  0  0  0  0
    5.3549    6.0332   -5.4670 H   0  0  0  0  0  0  0  0  0  0  0  0
    7.5022    4.2957   -6.8147 H   0  0  0  0  0  0  0  0  0  0  0  0
    6.8779    5.8402   -7.4180 H   0  0  0  0  0  0  0  0  0  0  0  0
    4.1535    5.6996   -7.3725 H   0  0  0  0  0  0  0  0  0  0  0  0
    3.5679    4.2310   -8.1797 H   0  0  0  0  0  0  0  0  0  0  0  0
    5.5166    6.2984   -9.3547 H   0  0  0  0  0  0  0  0  0  0  0  0
    3.8366    5.9888   -9.8579 H   0  0  0  0  0  0  0  0  0  0  0  0
    5.3037    4.7887  -11.3032 H   0  0  0  0  0  0  0  0  0  0  0  0
    7.2297    4.3746   -9.7985 H   0  0  0  0  0  0  0  0  0  0  0  0
    6.5787    2.9086  -10.5775 H   0  0  0  0  0  0  0  0  0  0  0  0
    6.8903    2.6074   -8.0867 H   0  0  0  0  0  0  0  0  0  0  0  0
    5.2079    2.3847   -8.6206 H   0  0  0  0  0  0  0  0  0  0  0  0
    6.9385    3.7049   -1.1105 H   0  0  0  0  0  0  0  0  0  0  0  0
    5.2510    2.3071    1.0105 H   0  0  0  0  0  0  0  0  0  0  0  0
    5.3332    4.0324    0.5790 H   0  0  0  0  0  0  0  0  0  0  0  0
    6.7038    3.2115    2.7716 H   0  0  0  0  0  0  0  0  0  0  0  0
    7.6721    4.1429    1.5686 H   0  0  0  0  0  0  0  0  0  0  0  0
    7.7731    0.8499   -0.7588 H   0  0  0  0  0  0  0  0  0  0  0  0
    8.7823    2.3332   -0.8160 H   0  0  0  0  0  0  0  0  0  0  0  0
  1  2  1  0
  1 27  1  0
  1 28  1  0
  1 29  1  0
  2  3  1  0
  2  4  1  0
  3 30  1  0
  3 31  1  0
  3 32  1  0
  4  5  1  0
  4 33  1  0
  4 34  1  0
  5  6  1  0
  5 35  1  0
  5 36  1  0
  6  7  1  0
  6 20  1  0
  7  8  2  0
  7  9  1  0
  9 10  2  0
  9 11  1  0
 11 12  1  0
 11 37  1  0
 12 13  1  0
 12 38  1  0
 12 39  1  0
 13 14  1  0
 13 40  1  0
 13 41  1  0
 14 15  1  0
 14 19  1  0
 15 16  1  0
 15 42  1  0
 15 43  1  0
 16 17  1  0
 16 44  1  0
 16 45  1  0
 17 18  1  0
 17 46  1  0
 18 19  1  0
 18 47  1  0
 18 48  1  0
 19 49  1  0
 19 50  1  0
 20 21  1  0
 20 26  1  0
 20 51  1  6
 21 22  1  0
 21 52  1  0
 21 53  1  0
 23 22  1  1
 22 54  1  0
 22 55  1  0
 23 24  2  0
 23 25  2  0
 23 26  1  0
 26 56  1  0
 26 57  1  0
M  END

