
     RDKit          3D

 16 16  0  0  0  0  0  0  0  0999 V2000
    1.9961   -0.4347   -1.8062 N   0  0  0  0  0  0  0  0  0  0  0  0
    2.8096   -0.2094   -1.0134 C   0  0  0  0  0  0  0  0  0  0  0  0
    3.8440    0.0581   -0.0097 C   0  0  0  0  0  0  0  0  0  0  0  0
    4.5466    1.4109   -0.1806 C   0  0  1  0  0  0  0  0  0  0  0  0
    5.2104    1.6122   -1.5219 C   0  0  0  0  0  0  0  0  0  0  0  0
    5.3646    2.8686   -1.9781 C   0  0  0  0  0  0  0  0  0  0  0  0
    4.7710    3.9793   -1.2439 C   0  0  0  0  0  0  0  0  0  0  0  0
    3.8581    3.6877   -0.2940 C   0  0  0  0  0  0  0  0  0  0  0  0
    3.5593    2.4227    0.0796 O   0  0  0  0  0  0  0  0  0  0  0  0
    4.5973   -0.7455   -0.0546 H   0  0  0  0  0  0  0  0  0  0  0  0
    3.3831    0.0187    0.9901 H   0  0  0  0  0  0  0  0  0  0  0  0
    5.3061    1.4782    0.6310 H   0  0  0  0  0  0  0  0  0  0  0  0
    5.5749    0.7402   -2.0705 H   0  0  0  0  0  0  0  0  0  0  0  0
    5.8750    3.0638   -2.9250 H   0  0  0  0  0  0  0  0  0  0  0  0
    4.9567    5.0163   -1.5241 H   0  0  0  0  0  0  0  0  0  0  0  0
    3.2254    4.4248    0.2072 H   0  0  0  0  0  0  0  0  0  0  0  0
  1  2  3  0
  2  3  1  0
  3  4  1  0
  3 10  1  0
  3 11  1  0
  4  5  1  0
  4  9  1  0
  4 12  1  1
  5  6  2  0
  5 13  1  0
  6  7  1  0
  6 14  1  0
  7  8  2  0
  7 15  1  0
  8  9  1  0
  8 16  1  0
M  END

