
     RDKit          3D

 31 32  0  0  0  0  0  0  0  0999 V2000
    1.1858    0.2878    0.5032 C   0  0  0  0  0  0  0  0  0  0  0  0
    2.3809    0.2360    0.2985 C   0  0  0  0  0  0  0  0  0  0  0  0
    3.7855    0.1870    0.0443 C   0  0  0  0  0  0  0  0  0  0  0  0
    4.4024    1.0215   -0.9119 C   0  0  0  0  0  0  0  0  0  0  0  0
    5.7726    0.9627   -1.1445 C   0  0  0  0  0  0  0  0  0  0  0  0
    6.5853    0.0546   -0.4409 C   0  0  0  0  0  0  0  0  0  0  0  0
    8.0593    0.0406   -0.6824 C   0  0  0  0  0  0  0  0  0  0  0  0
    8.6331    1.2509   -0.7205 N   0  0  0  0  0  0  0  0  0  0  0  0
    9.9521    1.3869   -0.8993 C   0  0  0  0  0  0  0  0  0  0  0  0
   10.4169    2.8399   -0.9133 C   0  0  0  0  0  0  0  0  0  0  0  0
   11.5509    3.1980   -1.0904 O   0  0  0  0  0  0  0  0  0  0  0  0
    9.4027    3.6814   -0.7054 O   0  0  0  0  0  0  0  0  0  0  0  0
   10.7862    0.2783   -1.0413 C   0  0  0  0  0  0  0  0  0  0  0  0
   12.5154    0.3943   -1.2349 Cl  0  0  0  0  0  0  0  0  0  0  0  0
   10.2107   -1.0211   -1.0315 C   0  0  0  0  0  0  0  0  0  0  0  0
   10.9923   -2.1201   -1.2122 N   0  0  0  0  0  0  0  0  0  0  0  0
    8.8028   -1.1407   -0.8716 C   0  0  0  0  0  0  0  0  0  0  0  0
    8.1919   -2.5151   -0.9759 C   0  0  0  0  0  0  0  0  0  0  0  0
    5.9871   -0.7765    0.5196 C   0  0  0  0  0  0  0  0  0  0  0  0
    4.6186   -0.7009    0.7493 C   0  0  0  0  0  0  0  0  0  0  0  0
    4.0800   -1.4968    1.6781 F   0  0  0  0  0  0  0  0  0  0  0  0
    0.1289    0.3317    0.6884 H   0  0  0  0  0  0  0  0  0  0  0  0
    3.7790    1.7218   -1.4709 H   0  0  0  0  0  0  0  0  0  0  0  0
    6.2298    1.6238   -1.8822 H   0  0  0  0  0  0  0  0  0  0  0  0
    8.6081    3.1076   -0.5944 H   0  0  0  0  0  0  0  0  0  0  0  0
   11.9966   -1.9940   -1.2387 H   0  0  0  0  0  0  0  0  0  0  0  0
   10.6347   -3.0425   -1.0139 H   0  0  0  0  0  0  0  0  0  0  0  0
    8.6045   -3.0516   -1.8475 H   0  0  0  0  0  0  0  0  0  0  0  0
    7.1039   -2.4747   -1.1005 H   0  0  0  0  0  0  0  0  0  0  0  0
    8.3991   -3.1346   -0.0839 H   0  0  0  0  0  0  0  0  0  0  0  0
    6.5721   -1.4699    1.1253 H   0  0  0  0  0  0  0  0  0  0  0  0
  1  2  3  0
  1 22  1  0
  2  3  1  0
  3  4  2  0
  3 20  1  0
  4  5  1  0
  4 23  1  0
  5  6  2  0
  5 24  1  0
  6  7  1  0
  6 19  1  0
  7  8  2  0
  7 17  1  0
  8  9  1  0
  9 10  1  0
  9 13  2  0
 10 11  2  0
 10 12  1  0
 12 25  1  0
 13 14  1  0
 13 15  1  0
 15 16  1  0
 15 17  2  0
 16 26  1  0
 16 27  1  0
 17 18  1  0
 18 28  1  0
 18 29  1  0
 18 30  1  0
 19 20  2  0
 19 31  1  0
 20 21  1  0
M  END

