
     RDKit          3D

 75 80  0  0  0  0  0  0  0  0999 V2000
   -0.1164    2.6042    3.0234 C   0  0  0  0  0  0  0  0  0  0  0  0
    1.1291    2.7836    3.9218 C   0  0  1  0  0  0  0  0  0  0  0  0
    1.5045    4.2820    3.9882 C   0  0  0  0  0  0  0  0  0  0  0  0
    0.7723    2.3113    5.3425 C   0  0  0  0  0  0  0  0  0  0  0  0
    2.3050    1.9899    3.3245 C   0  0  0  0  0  0  0  0  0  0  0  0
    2.7845    2.2709    2.0360 C   0  0  0  0  0  0  0  0  0  0  0  0
    3.8421    1.5572    1.4814 C   0  0  0  0  0  0  0  0  0  0  0  0
    4.5127    0.5118    2.1496 C   0  0  0  0  0  0  0  0  0  0  0  0
    5.7202   -0.1709    1.4529 C   0  0  1  0  0  0  0  0  0  0  0  0
    7.0115    0.5743    1.8701 C   0  0  0  0  0  0  0  0  0  0  0  0
    5.8616   -1.6742    1.7858 C   0  0  0  0  0  0  0  0  0  0  0  0
    5.5912   -0.0844   -0.0867 C   0  0  0  0  0  0  0  0  0  0  0  0
    4.0297    0.2439    3.4476 C   0  0  0  0  0  0  0  0  0  0  0  0
    4.5752   -0.7832    4.3209 N   0  0  0  0  0  0  0  0  0  0  0  0
    3.9159   -2.0287    4.3371 C   0  0  0  0  0  0  0  0  0  0  0  0
    2.9861   -2.2514    3.5883 O   0  0  0  0  0  0  0  0  0  0  0  0
    4.4246   -3.0462    5.2997 C   0  0  0  0  0  0  0  0  0  0  0  0
    3.8119   -4.2882    5.3423 C   0  0  0  0  0  0  0  0  0  0  0  0
    4.2553   -5.2614    6.2599 C   0  0  0  0  0  0  0  0  0  0  0  0
    5.3139   -4.9975    7.1099 C   0  0  0  0  0  0  0  0  0  0  0  0
    5.9901   -3.7458    7.0828 C   0  0  0  0  0  0  0  0  0  0  0  0
    7.0980   -3.4141    7.9434 C   0  0  0  0  0  0  0  0  0  0  0  0
    7.6999   -4.3635    8.8980 C   0  0  0  0  0  0  0  0  0  0  0  0
    8.0429   -4.1117   10.2136 C   0  0  0  0  0  0  0  0  0  0  0  0
    8.6981   -5.1956   10.8505 C   0  0  0  0  0  0  0  0  0  0  0  0
    8.8781   -6.2948   10.0299 C   0  0  0  0  0  0  0  0  0  0  0  0
    9.5092   -7.5799   10.3467 C   0  0  0  0  0  0  0  0  0  0  0  0
    9.3023   -8.7226    9.5434 C   0  0  0  0  0  0  0  0  0  0  0  0
    9.9014   -9.9400    9.8509 C   0  0  0  0  0  0  0  0  0  0  0  0
   10.7161  -10.0257   10.9807 C   0  0  0  0  0  0  0  0  0  0  0  0
   11.3511  -11.3132   11.3155 N   0  0  0  0  0  0  0  0  0  0  0  0
   11.1316  -12.2598   10.5760 O   0  0  0  0  0  0  0  0  0  0  0  0
   12.0564  -11.3523   12.3116 O   0  0  0  0  0  0  0  0  0  0  0  0
   10.9448   -8.9183   11.8001 C   0  0  0  0  0  0  0  0  0  0  0  0
   10.3465   -7.7053   11.4779 C   0  0  0  0  0  0  0  0  0  0  0  0
    8.2252   -5.9677    8.4416 S   0  0  0  0  0  0  0  0  0  0  0  0
    7.6299   -2.1256    7.8892 C   0  0  0  0  0  0  0  0  0  0  0  0
    7.1327   -1.1524    7.0049 C   0  0  0  0  0  0  0  0  0  0  0  0
    6.0951   -1.4569    6.1399 C   0  0  0  0  0  0  0  0  0  0  0  0
    5.5088   -2.7494    6.1690 C   0  0  0  0  0  0  0  0  0  0  0  0
    5.6070   -0.4109    5.1995 C   0  0  0  0  0  0  0  0  0  0  0  0
    6.0793    0.7096    5.1748 O   0  0  0  0  0  0  0  0  0  0  0  0
    2.9601    0.9613    4.0031 C   0  0  0  0  0  0  0  0  0  0  0  0
   -0.9704    3.1698    3.4315 H   0  0  0  0  0  0  0  0  0  0  0  0
   -0.4079    1.5439    2.9598 H   0  0  0  0  0  0  0  0  0  0  0  0
    0.0619    2.9641    1.9985 H   0  0  0  0  0  0  0  0  0  0  0  0
    0.6711    4.8694    4.4081 H   0  0  0  0  0  0  0  0  0  0  0  0
    1.7324    4.6927    2.9927 H   0  0  0  0  0  0  0  0  0  0  0  0
    2.3888    4.4398    4.6258 H   0  0  0  0  0  0  0  0  0  0  0  0
   -0.0714    2.9031    5.7314 H   0  0  0  0  0  0  0  0  0  0  0  0
    1.6143    2.4385    6.0409 H   0  0  0  0  0  0  0  0  0  0  0  0
    0.4687    1.2528    5.3593 H   0  0  0  0  0  0  0  0  0  0  0  0
    2.3274    3.0636    1.4387 H   0  0  0  0  0  0  0  0  0  0  0  0
    4.1586    1.8347    0.4774 H   0  0  0  0  0  0  0  0  0  0  0  0
    7.1519    0.5691    2.9598 H   0  0  0  0  0  0  0  0  0  0  0  0
    6.9746    1.6277    1.5500 H   0  0  0  0  0  0  0  0  0  0  0  0
    7.8923    0.1063    1.3986 H   0  0  0  0  0  0  0  0  0  0  0  0
    6.2130   -1.8519    2.8093 H   0  0  0  0  0  0  0  0  0  0  0  0
    6.6082   -2.1252    1.1132 H   0  0  0  0  0  0  0  0  0  0  0  0
    4.9113   -2.2104    1.6455 H   0  0  0  0  0  0  0  0  0  0  0  0
    5.6475    0.9468   -0.4639 H   0  0  0  0  0  0  0  0  0  0  0  0
    4.6487   -0.5304   -0.4418 H   0  0  0  0  0  0  0  0  0  0  0  0
    6.4226   -0.6359   -0.5523 H   0  0  0  0  0  0  0  0  0  0  0  0
    2.9798   -4.4816    4.6628 H   0  0  0  0  0  0  0  0  0  0  0  0
    3.7530   -6.2304    6.3057 H   0  0  0  0  0  0  0  0  0  0  0  0
    5.6279   -5.7604    7.8223 H   0  0  0  0  0  0  0  0  0  0  0  0
    7.8015   -3.1720   10.7122 H   0  0  0  0  0  0  0  0  0  0  0  0
    9.0041   -5.1758   11.8969 H   0  0  0  0  0  0  0  0  0  0  0  0
    8.6495   -8.6614    8.6698 H   0  0  0  0  0  0  0  0  0  0  0  0
    9.7446  -10.8267    9.2373 H   0  0  0  0  0  0  0  0  0  0  0  0
   11.5938   -9.0235   12.6690 H   0  0  0  0  0  0  0  0  0  0  0  0
   10.5463   -6.8350   12.1049 H   0  0  0  0  0  0  0  0  0  0  0  0
    8.4781   -1.8779    8.5302 H   0  0  0  0  0  0  0  0  0  0  0  0
    7.5659   -0.1511    6.9687 H   0  0  0  0  0  0  0  0  0  0  0  0
    2.6517    0.6789    5.0090 H   0  0  0  0  0  0  0  0  0  0  0  0
  2  1  1  6
  1 44  1  0
  1 45  1  0
  1 46  1  0
  2  3  1  0
  2  4  1  0
  2  5  1  0
  3 47  1  0
  3 48  1  0
  3 49  1  0
  4 50  1  0
  4 51  1  0
  4 52  1  0
  5  6  2  0
  5 43  1  0
  6  7  1  0
  6 53  1  0
  7  8  2  0
  7 54  1  0
  8  9  1  0
  8 13  1  0
  9 10  1  1
  9 11  1  0
  9 12  1  0
 10 55  1  0
 10 56  1  0
 10 57  1  0
 11 58  1  0
 11 59  1  0
 11 60  1  0
 12 61  1  0
 12 62  1  0
 12 63  1  0
 13 14  1  0
 13 43  2  0
 14 15  1  0
 14 41  1  0
 15 16  2  0
 15 17  1  0
 17 18  2  0
 17 40  1  0
 18 19  1  0
 18 64  1  0
 19 20  2  0
 19 65  1  0
 20 21  1  0
 20 66  1  0
 21 22  1  0
 21 40  2  0
 22 23  2  0
 22 37  1  0
 23 24  1  0
 23 36  1  0
 24 25  2  0
 24 67  1  0
 25 26  1  0
 25 68  1  0
 26 27  1  0
 26 36  2  0
 27 28  2  0
 27 35  1  0
 28 29  1  0
 28 69  1  0
 29 30  2  0
 29 70  1  0
 30 31  1  0
 30 34  1  0
 31 32  2  0
 31 33  1  0
 34 35  2  0
 34 71  1  0
 35 72  1  0
 37 38  2  0
 37 73  1  0
 38 39  1  0
 38 74  1  0
 39 40  1  0
 39 41  2  0
 41 42  1  0
 43 75  1  0
M  CHG  4  31   1  33  -1  36   1  42  -1
M  END

