
     RDKit          3D

 33 35  0  0  0  0  0  0  0  0999 V2000
    3.3568   -1.1549   -4.5241 C   0  0  0  0  0  0  0  0  0  0  0  0
    2.6347    0.1316   -3.4608 S   0  0  0  0  0  0  0  0  0  0  0  0
    3.3532   -0.3362   -1.8193 C   0  0  0  0  0  0  0  0  0  0  0  0
    4.8426   -0.2461   -1.7180 C   0  0  0  0  0  0  0  0  0  0  0  0
    5.6581    0.9295   -1.7068 C   0  0  0  0  0  0  0  0  0  0  0  0
    5.2269    2.3452   -1.7027 C   0  0  0  0  0  0  0  0  0  0  0  0
    4.2552    2.8149   -0.7993 C   0  0  0  0  0  0  0  0  0  0  0  0
    3.8745    4.1586   -0.7881 C   0  0  0  0  0  0  0  0  0  0  0  0
    4.4615    5.0650   -1.6762 C   0  0  0  0  0  0  0  0  0  0  0  0
    5.4347    4.6156   -2.5735 C   0  0  0  0  0  0  0  0  0  0  0  0
    5.8117    3.2710   -2.5871 C   0  0  0  0  0  0  0  0  0  0  0  0
    6.9912    0.5245   -1.7021 C   0  0  0  0  0  0  0  0  0  0  0  0
    7.0372   -0.8451   -1.7030 N   0  0  0  0  0  0  0  0  0  0  0  0
    8.1294   -1.6829   -1.6830 C   0  0  0  0  0  0  0  0  0  0  0  0
    7.9551   -3.0378   -1.6891 C   0  0  0  0  0  0  0  0  0  0  0  0
    6.6365   -3.5908   -1.7134 C   0  0  0  0  0  0  0  0  0  0  0  0
    5.5447   -2.7562   -1.7281 C   0  0  0  0  0  0  0  0  0  0  0  0
    5.7153   -1.3454   -1.7195 C   0  0  0  0  0  0  0  0  0  0  0  0
    3.0296   -0.9342   -5.5506 H   0  0  0  0  0  0  0  0  0  0  0  0
    3.0011   -2.1611   -4.2501 H   0  0  0  0  0  0  0  0  0  0  0  0
    4.4567   -1.1315   -4.4916 H   0  0  0  0  0  0  0  0  0  0  0  0
    3.0032   -1.3485   -1.5639 H   0  0  0  0  0  0  0  0  0  0  0  0
    2.8499    0.3547   -1.1282 H   0  0  0  0  0  0  0  0  0  0  0  0
    3.8123    2.1240   -0.0785 H   0  0  0  0  0  0  0  0  0  0  0  0
    3.1199    4.5012   -0.0752 H   0  0  0  0  0  0  0  0  0  0  0  0
    4.1624    6.1162   -1.6682 H   0  0  0  0  0  0  0  0  0  0  0  0
    5.8982    5.3152   -3.2742 H   0  0  0  0  0  0  0  0  0  0  0  0
    6.5571    2.9221   -3.3059 H   0  0  0  0  0  0  0  0  0  0  0  0
    7.9015    1.1179   -1.6578 H   0  0  0  0  0  0  0  0  0  0  0  0
    9.1060   -1.1966   -1.6635 H   0  0  0  0  0  0  0  0  0  0  0  0
    8.8323   -3.6862   -1.6738 H   0  0  0  0  0  0  0  0  0  0  0  0
    6.5035   -4.6744   -1.7172 H   0  0  0  0  0  0  0  0  0  0  0  0
    4.5310   -3.1605   -1.7431 H   0  0  0  0  0  0  0  0  0  0  0  0
  1  2  1  0
  1 19  1  0
  1 20  1  0
  1 21  1  0
  2  3  1  0
  3  4  1  0
  3 22  1  0
  3 23  1  0
  4  5  1  0
  4 18  2  0
  5  6  1  0
  5 12  2  0
  6  7  2  0
  6 11  1  0
  7  8  1  0
  7 24  1  0
  8  9  2  0
  8 25  1  0
  9 10  1  0
  9 26  1  0
 10 11  2  0
 10 27  1  0
 11 28  1  0
 12 13  1  0
 12 29  1  0
 13 14  1  0
 13 18  1  0
 14 15  2  0
 14 30  1  0
 15 16  1  0
 15 31  1  0
 16 17  2  0
 16 32  1  0
 17 18  1  0
 17 33  1  0
M  END

