
     RDKit          3D

 94103  0  0  0  0  0  0  0  0999 V2000
    7.3650   -5.3816   -4.4597 C   0  0  0  0  0  0  0  0  0  0  0  0
    7.0958   -5.4682   -2.9567 C   0  0  0  0  0  0  0  0  0  0  0  0
    7.1380   -4.1112   -2.2474 C   0  0  0  0  0  0  0  0  0  0  0  0
    6.8666   -4.1908   -0.7421 C   0  0  0  0  0  0  0  0  0  0  0  0
    6.9234   -2.8298   -0.0433 C   0  0  0  0  0  0  0  0  0  0  0  0
    6.6060   -2.8611    1.4568 C   0  0  0  0  0  0  0  0  0  0  0  0
    7.5420   -3.6494    2.2487 N   0  0  0  0  0  0  0  0  0  0  0  0
    8.8135   -3.1925    2.6295 C   0  0  0  0  0  0  0  0  0  0  0  0
    9.2849   -2.1160    2.3441 O   0  0  0  0  0  0  0  0  0  0  0  0
    9.4122   -4.3002    3.4385 C   0  0  0  0  0  0  0  0  0  0  0  0
   10.6425   -4.3964    4.0676 C   0  0  0  0  0  0  0  0  0  0  0  0
   10.9601   -5.5672    4.7917 C   0  0  0  0  0  0  0  0  0  0  0  0
   12.2687   -5.6035    5.5071 C   0  0  0  0  0  0  0  0  0  0  0  0
   12.3484   -5.9075    6.8783 C   0  0  0  0  0  0  0  0  0  0  0  0
   13.5680   -5.8855    7.5513 C   0  0  0  0  0  0  0  0  0  0  0  0
   14.7542   -5.5821    6.8638 C   0  0  0  0  0  0  0  0  0  0  0  0
   15.9976   -5.5830    7.5428 N   0  0  0  0  0  0  0  0  0  0  0  0
   16.5227   -6.6485    8.2850 C   0  0  0  0  0  0  0  0  0  0  0  0
   15.9954   -7.9272    8.5079 C   0  0  0  0  0  0  0  0  0  0  0  0
   16.7463   -8.8171    9.2774 C   0  0  0  0  0  0  0  0  0  0  0  0
   17.9962   -8.4517    9.8116 C   0  0  0  0  0  0  0  0  0  0  0  0
   18.5236   -7.1830    9.5757 C   0  0  0  0  0  0  0  0  0  0  0  0
   17.7895   -6.2696    8.8053 C   0  0  0  0  0  0  0  0  0  0  0  0
   18.0375   -4.9125    8.3582 C   0  0  0  0  0  0  0  0  0  0  0  0
   19.0891   -4.0063    8.5569 C   0  0  0  0  0  0  0  0  0  0  0  0
   19.0067   -2.7346    7.9915 C   0  0  0  0  0  0  0  0  0  0  0  0
   17.8793   -2.3593    7.2373 C   0  0  0  0  0  0  0  0  0  0  0  0
   16.8194   -3.2421    7.0240 C   0  0  0  0  0  0  0  0  0  0  0  0
   16.9125   -4.5237    7.5817 C   0  0  0  0  0  0  0  0  0  0  0  0
   14.6882   -5.2795    5.4955 C   0  0  0  0  0  0  0  0  0  0  0  0
   13.4597   -5.2766    4.8345 C   0  0  0  0  0  0  0  0  0  0  0  0
   10.0213   -6.6399    4.8446 C   0  0  0  0  0  0  0  0  0  0  0  0
   10.3155   -7.9398    5.5166 C   0  0  0  0  0  0  0  0  0  0  0  0
    9.3988   -8.4968    6.4260 C   0  0  0  0  0  0  0  0  0  0  0  0
    9.6333   -9.7362    7.0226 C   0  0  0  0  0  0  0  0  0  0  0  0
   10.8019  -10.4531    6.7270 C   0  0  0  0  0  0  0  0  0  0  0  0
   11.0491  -11.7096    7.3351 N   0  0  0  0  0  0  0  0  0  0  0  0
   11.2984  -12.9109    6.6607 C   0  0  0  0  0  0  0  0  0  0  0  0
   11.3236  -13.1735    5.2850 C   0  0  0  0  0  0  0  0  0  0  0  0
   11.5775  -14.4835    4.8760 C   0  0  0  0  0  0  0  0  0  0  0  0
   11.7970  -15.5144    5.8088 C   0  0  0  0  0  0  0  0  0  0  0  0
   11.7575  -15.2514    7.1773 C   0  0  0  0  0  0  0  0  0  0  0  0
   11.5040  -13.9435    7.6152 C   0  0  0  0  0  0  0  0  0  0  0  0
   11.3754  -13.3347    8.9251 C   0  0  0  0  0  0  0  0  0  0  0  0
   11.4855  -13.8246   10.2345 C   0  0  0  0  0  0  0  0  0  0  0  0
   11.3216  -12.9467   11.3051 C   0  0  0  0  0  0  0  0  0  0  0  0
   11.0564  -11.5834   11.0776 C   0  0  0  0  0  0  0  0  0  0  0  0
   10.9411  -11.0702    9.7848 C   0  0  0  0  0  0  0  0  0  0  0  0
   11.0935  -11.9580    8.7120 C   0  0  0  0  0  0  0  0  0  0  0  0
   11.7230   -9.9088    5.8176 C   0  0  0  0  0  0  0  0  0  0  0  0
   11.4782   -8.6740    5.2197 C   0  0  0  0  0  0  0  0  0  0  0  0
    8.7685   -6.5035    4.2062 C   0  0  0  0  0  0  0  0  0  0  0  0
    8.4823   -5.3373    3.5153 C   0  0  0  0  0  0  0  0  0  0  0  0
    7.2600   -4.9306    2.7536 C   0  0  0  0  0  0  0  0  0  0  0  0
    6.2281   -5.5388    2.5906 O   0  0  0  0  0  0  0  0  0  0  0  0
    7.3273   -6.3743   -4.9361 H   0  0  0  0  0  0  0  0  0  0  0  0
    8.3599   -4.9517   -4.6651 H   0  0  0  0  0  0  0  0  0  0  0  0
    6.6210   -4.7425   -4.9643 H   0  0  0  0  0  0  0  0  0  0  0  0
    7.8333   -6.1451   -2.4878 H   0  0  0  0  0  0  0  0  0  0  0  0
    6.1098   -5.9366   -2.7842 H   0  0  0  0  0  0  0  0  0  0  0  0
    6.4011   -3.4324   -2.7165 H   0  0  0  0  0  0  0  0  0  0  0  0
    8.1251   -3.6414   -2.4165 H   0  0  0  0  0  0  0  0  0  0  0  0
    7.6015   -4.8746   -0.2803 H   0  0  0  0  0  0  0  0  0  0  0  0
    5.8790   -4.6542   -0.5671 H   0  0  0  0  0  0  0  0  0  0  0  0
    6.1976   -2.1426   -0.5138 H   0  0  0  0  0  0  0  0  0  0  0  0
    7.9158   -2.3691   -0.1868 H   0  0  0  0  0  0  0  0  0  0  0  0
    5.6110   -3.2959    1.6341 H   0  0  0  0  0  0  0  0  0  0  0  0
    6.6152   -1.8356    1.8571 H   0  0  0  0  0  0  0  0  0  0  0  0
   11.3468   -3.5627    4.0316 H   0  0  0  0  0  0  0  0  0  0  0  0
   11.4378   -6.1395    7.4336 H   0  0  0  0  0  0  0  0  0  0  0  0
   13.6062   -6.0922    8.6224 H   0  0  0  0  0  0  0  0  0  0  0  0
   15.0320   -8.2262    8.0924 H   0  0  0  0  0  0  0  0  0  0  0  0
   16.3528   -9.8193    9.4656 H   0  0  0  0  0  0  0  0  0  0  0  0
   18.5576   -9.1719   10.4114 H   0  0  0  0  0  0  0  0  0  0  0  0
   19.4990   -6.9037    9.9823 H   0  0  0  0  0  0  0  0  0  0  0  0
   19.9600   -4.2932    9.1515 H   0  0  0  0  0  0  0  0  0  0  0  0
   19.8199   -2.0199    8.1381 H   0  0  0  0  0  0  0  0  0  0  0  0
   17.8279   -1.3544    6.8105 H   0  0  0  0  0  0  0  0  0  0  0  0
   15.9463   -2.9354    6.4462 H   0  0  0  0  0  0  0  0  0  0  0  0
   15.6063   -5.0599    4.9476 H   0  0  0  0  0  0  0  0  0  0  0  0
   13.4300   -5.0464    3.7666 H   0  0  0  0  0  0  0  0  0  0  0  0
    8.4855   -7.9504    6.6742 H   0  0  0  0  0  0  0  0  0  0  0  0
    8.9033  -10.1585    7.7157 H   0  0  0  0  0  0  0  0  0  0  0  0
   11.1453  -12.3849    4.5524 H   0  0  0  0  0  0  0  0  0  0  0  0
   11.6028  -14.7111    3.8072 H   0  0  0  0  0  0  0  0  0  0  0  0
   11.9945  -16.5289    5.4548 H   0  0  0  0  0  0  0  0  0  0  0  0
   11.9177  -16.0547    7.9009 H   0  0  0  0  0  0  0  0  0  0  0  0
   11.7011  -14.8812   10.4122 H   0  0  0  0  0  0  0  0  0  0  0  0
   11.4039  -13.3165   12.3299 H   0  0  0  0  0  0  0  0  0  0  0  0
   10.9399  -10.9088   11.9297 H   0  0  0  0  0  0  0  0  0  0  0  0
   10.7429  -10.0100    9.6208 H   0  0  0  0  0  0  0  0  0  0  0  0
   12.6374  -10.4579    5.5853 H   0  0  0  0  0  0  0  0  0  0  0  0
   12.2041   -8.2729    4.5100 H   0  0  0  0  0  0  0  0  0  0  0  0
    8.0455   -7.3214    4.2297 H   0  0  0  0  0  0  0  0  0  0  0  0
  1  2  1  0
  1 56  1  0
  1 57  1  0
  1 58  1  0
  2  3  1  0
  2 59  1  0
  2 60  1  0
  3  4  1  0
  3 61  1  0
  3 62  1  0
  4  5  1  0
  4 63  1  0
  4 64  1  0
  5  6  1  0
  5 65  1  0
  5 66  1  0
  6  7  1  0
  6 67  1  0
  6 68  1  0
  7  8  1  0
  7 54  1  0
  8  9  2  0
  8 10  1  0
 10 11  2  0
 10 53  1  0
 11 12  1  0
 11 69  1  0
 12 13  1  0
 12 32  2  0
 13 14  2  0
 13 31  1  0
 14 15  1  0
 14 70  1  0
 15 16  2  0
 15 71  1  0
 16 17  1  0
 16 30  1  0
 17 18  1  0
 17 29  1  0
 18 19  2  0
 18 23  1  0
 19 20  1  0
 19 72  1  0
 20 21  2  0
 20 73  1  0
 21 22  1  0
 21 74  1  0
 22 23  2  0
 22 75  1  0
 23 24  1  0
 24 25  1  0
 24 29  2  0
 25 26  2  0
 25 76  1  0
 26 27  1  0
 26 77  1  0
 27 28  2  0
 27 78  1  0
 28 29  1  0
 28 79  1  0
 30 31  2  0
 30 80  1  0
 31 81  1  0
 32 33  1  0
 32 52  1  0
 33 34  2  0
 33 51  1  0
 34 35  1  0
 34 82  1  0
 35 36  2  0
 35 83  1  0
 36 37  1  0
 36 50  1  0
 37 38  1  0
 37 49  1  0
 38 39  2  0
 38 43  1  0
 39 40  1  0
 39 84  1  0
 40 41  2  0
 40 85  1  0
 41 42  1  0
 41 86  1  0
 42 43  2  0
 42 87  1  0
 43 44  1  0
 44 45  1  0
 44 49  2  0
 45 46  2  0
 45 88  1  0
 46 47  1  0
 46 89  1  0
 47 48  2  0
 47 90  1  0
 48 49  1  0
 48 91  1  0
 50 51  2  0
 50 92  1  0
 51 93  1  0
 52 53  2  0
 52 94  1  0
 53 54  1  0
 54 55  2  0
M  END

