
     RDKit          3D

 47 48  0  0  0  0  0  0  0  0999 V2000
    3.4667    1.0897    1.1818 C   0  0  0  0  0  0  0  0  0  0  0  0
    3.2131    0.2366   -0.0828 C   0  0  1  0  0  0  0  0  0  0  0  0
    4.3080   -0.8495   -0.1969 C   0  0  0  0  0  0  0  0  0  0  0  0
    1.8532   -0.4667    0.0769 C   0  0  0  0  0  0  0  0  0  0  0  0
    3.2558    1.1409   -1.3296 C   0  0  0  0  0  0  0  0  0  0  0  0
    4.4247    1.8680   -1.6379 C   0  0  0  0  0  0  0  0  0  0  0  0
    4.5085    2.6942   -2.7526 C   0  0  0  0  0  0  0  0  0  0  0  0
    3.4094    2.8272   -3.6151 C   0  0  0  0  0  0  0  0  0  0  0  0
    3.5733    3.6594   -4.6879 O   0  0  0  0  0  0  0  0  0  0  0  0
    2.5158    3.8355   -5.6039 C   0  0  0  0  0  0  0  0  0  0  0  0
    2.9174    4.7912   -6.7249 C   0  0  0  0  0  0  0  0  0  0  0  0
    2.1318    5.0437   -7.6241 O   0  0  0  0  0  0  0  0  0  0  0  0
    4.1631    5.3209   -6.6256 N   0  0  0  0  0  0  0  0  0  0  0  0
    4.6898    6.2053   -7.6516 C   0  0  0  0  0  0  0  0  0  0  0  0
    5.3519    5.4877   -8.8044 C   0  0  0  0  0  0  0  0  0  0  0  0
    4.7336    4.8215   -9.8411 C   0  0  0  0  0  0  0  0  0  0  0  0
    5.6523    4.1984  -10.7313 C   0  0  0  0  0  0  0  0  0  0  0  0
    6.9604    4.4019  -10.3563 C   0  0  0  0  0  0  0  0  0  0  0  0
    8.4042    3.8325  -11.2246 S   0  0  1  0  0  0  0  0  0  0  0  0
    8.9158    5.0852  -12.2078 N   0  0  0  0  0  0  0  0  0  0  0  0
    9.4577    3.6611  -10.2302 O   0  0  0  0  0  0  0  0  0  0  0  0
    7.9540    2.7787  -12.1275 O   0  0  0  0  0  0  0  0  0  0  0  0
    7.0834    5.3427   -8.9022 S   0  0  0  0  0  0  0  0  0  0  0  0
    2.2368    2.1199   -3.3368 C   0  0  0  0  0  0  0  0  0  0  0  0
    2.1748    1.2920   -2.2064 C   0  0  0  0  0  0  0  0  0  0  0  0
    3.4452    0.4574    2.0848 H   0  0  0  0  0  0  0  0  0  0  0  0
    2.6963    1.8692    1.2934 H   0  0  0  0  0  0  0  0  0  0  0  0
    4.4466    1.5902    1.1506 H   0  0  0  0  0  0  0  0  0  0  0  0
    4.2962   -1.5045    0.6900 H   0  0  0  0  0  0  0  0  0  0  0  0
    5.3151   -0.4117   -0.2728 H   0  0  0  0  0  0  0  0  0  0  0  0
    4.1489   -1.4785   -1.0872 H   0  0  0  0  0  0  0  0  0  0  0  0
    1.8645   -1.1008    0.9774 H   0  0  0  0  0  0  0  0  0  0  0  0
    1.6232   -1.1174   -0.7814 H   0  0  0  0  0  0  0  0  0  0  0  0
    1.0283    0.2541    0.1915 H   0  0  0  0  0  0  0  0  0  0  0  0
    5.3013    1.7895   -0.9905 H   0  0  0  0  0  0  0  0  0  0  0  0
    5.4235    3.2477   -2.9745 H   0  0  0  0  0  0  0  0  0  0  0  0
    1.6170    4.2559   -5.1167 H   0  0  0  0  0  0  0  0  0  0  0  0
    2.2206    2.8809   -6.0760 H   0  0  0  0  0  0  0  0  0  0  0  0
    4.7622    4.9733   -5.8844 H   0  0  0  0  0  0  0  0  0  0  0  0
    5.3903    6.9123   -7.1825 H   0  0  0  0  0  0  0  0  0  0  0  0
    3.8411    6.7830   -8.0461 H   0  0  0  0  0  0  0  0  0  0  0  0
    3.6473    4.7750   -9.9333 H   0  0  0  0  0  0  0  0  0  0  0  0
    5.3797    3.6121  -11.6096 H   0  0  0  0  0  0  0  0  0  0  0  0
    9.2648    5.8909  -11.6919 H   0  0  0  0  0  0  0  0  0  0  0  0
    8.2532    5.3232  -12.9438 H   0  0  0  0  0  0  0  0  0  0  0  0
    1.3626    2.1972   -3.9837 H   0  0  0  0  0  0  0  0  0  0  0  0
    1.2417    0.7577   -2.0261 H   0  0  0  0  0  0  0  0  0  0  0  0
  2  1  1  1
  1 26  1  0
  1 27  1  0
  1 28  1  0
  2  3  1  0
  2  4  1  0
  2  5  1  0
  3 29  1  0
  3 30  1  0
  3 31  1  0
  4 32  1  0
  4 33  1  0
  4 34  1  0
  5  6  2  0
  5 25  1  0
  6  7  1  0
  6 35  1  0
  7  8  2  0
  7 36  1  0
  8  9  1  0
  8 24  1  0
  9 10  1  0
 10 11  1  0
 10 37  1  0
 10 38  1  0
 11 12  2  0
 11 13  1  0
 13 14  1  0
 13 39  1  0
 14 15  1  0
 14 40  1  0
 14 41  1  0
 15 16  2  0
 15 23  1  0
 16 17  1  0
 16 42  1  0
 17 18  2  0
 17 43  1  0
 18 19  1  0
 18 23  1  0
 19 20  1  6
 19 21  2  0
 19 22  2  0
 20 44  1  0
 20 45  1  0
 24 25  2  0
 24 46  1  0
 25 47  1  0
M  END

