
     RDKit          3D

 61 64  0  0  0  0  0  0  0  0999 V2000
    5.5655    2.7428    0.2483 C   0  0  0  0  0  0  0  0  0  0  0  0
    4.8108    1.4991   -0.2207 C   0  0  0  0  0  0  0  0  0  0  0  0
    5.6541    0.2358   -0.1359 C   0  0  0  0  0  0  0  0  0  0  0  0
    4.8687   -0.8546   -0.5893 O   0  0  0  0  0  0  0  0  0  0  0  0
    5.3971   -2.1021   -0.6228 C   0  0  0  0  0  0  0  0  0  0  0  0
    6.7004   -2.4305   -0.2191 C   0  0  0  0  0  0  0  0  0  0  0  0
    7.1445   -3.7537   -0.2941 C   0  0  0  0  0  0  0  0  0  0  0  0
    6.3131   -4.7874   -0.7609 C   0  0  0  0  0  0  0  0  0  0  0  0
    6.8039   -6.1700   -0.8840 C   0  0  0  0  0  0  0  0  0  0  0  0
    6.1692   -7.3834   -0.7145 C   0  0  0  0  0  0  0  0  0  0  0  0
    4.9571   -7.6856   -0.1610 N   0  0  0  0  0  0  0  0  0  0  0  0
    4.4116   -6.8914    0.9439 C   0  0  0  0  0  0  0  0  0  0  0  0
    2.8820   -6.8018    0.8547 C   0  0  0  0  0  0  0  0  0  0  0  0
    2.2375   -8.0993    0.7242 N   0  0  0  0  0  0  0  0  0  0  0  0
    1.7494   -8.7805    1.8550 C   0  0  0  0  0  0  0  0  0  0  0  0
    2.1271   -8.4443    3.1719 C   0  0  0  0  0  0  0  0  0  0  0  0
    1.6101   -9.1175    4.2819 C   0  0  0  0  0  0  0  0  0  0  0  0
    0.7086  -10.1689    4.1146 C   0  0  0  0  0  0  0  0  0  0  0  0
    0.3079  -10.5132    2.8209 C   0  0  0  0  0  0  0  0  0  0  0  0
    0.7948   -9.8260    1.7080 C   0  0  0  0  0  0  0  0  0  0  0  0
    0.3388  -10.2028    0.4645 O   0  0  0  0  0  0  0  0  0  0  0  0
   -0.6285   -9.3388   -0.1160 C   0  0  0  0  0  0  0  0  0  0  0  0
    2.7994   -8.8483   -0.4008 C   0  0  0  0  0  0  0  0  0  0  0  0
    4.3213   -9.0020   -0.2946 C   0  0  0  0  0  0  0  0  0  0  0  0
    7.1345   -8.4806   -1.1656 C   0  0  0  0  0  0  0  0  0  0  0  0
    6.9707   -9.6830   -1.1579 O   0  0  0  0  0  0  0  0  0  0  0  0
    8.2856   -7.8425   -1.5683 N   0  0  0  0  0  0  0  0  0  0  0  0
    9.4665   -8.5170   -2.0602 C   0  0  0  0  0  0  0  0  0  0  0  0
    8.1667   -6.4453   -1.4105 C   0  0  0  0  0  0  0  0  0  0  0  0
    9.0545   -5.6659   -1.6823 O   0  0  0  0  0  0  0  0  0  0  0  0
    5.0097   -4.4318   -1.1762 C   0  0  0  0  0  0  0  0  0  0  0  0
    4.5561   -3.1211   -1.1074 C   0  0  0  0  0  0  0  0  0  0  0  0
    4.9320    3.6402    0.1759 H   0  0  0  0  0  0  0  0  0  0  0  0
    6.4667    2.9245   -0.3609 H   0  0  0  0  0  0  0  0  0  0  0  0
    5.8883    2.6500    1.2988 H   0  0  0  0  0  0  0  0  0  0  0  0
    4.4744    1.6231   -1.2639 H   0  0  0  0  0  0  0  0  0  0  0  0
    3.8998    1.3505    0.3834 H   0  0  0  0  0  0  0  0  0  0  0  0
    5.9854    0.0598    0.9060 H   0  0  0  0  0  0  0  0  0  0  0  0
    6.5645    0.3341   -0.7582 H   0  0  0  0  0  0  0  0  0  0  0  0
    7.3818   -1.6654    0.1529 H   0  0  0  0  0  0  0  0  0  0  0  0
    8.1660   -3.9860    0.0080 H   0  0  0  0  0  0  0  0  0  0  0  0
    4.8465   -5.8863    0.9339 H   0  0  0  0  0  0  0  0  0  0  0  0
    4.7056   -7.3730    1.8971 H   0  0  0  0  0  0  0  0  0  0  0  0
    2.6231   -6.2028   -0.0372 H   0  0  0  0  0  0  0  0  0  0  0  0
    2.4830   -6.2653    1.7263 H   0  0  0  0  0  0  0  0  0  0  0  0
    2.8565   -7.6509    3.3379 H   0  0  0  0  0  0  0  0  0  0  0  0
    1.9361   -8.8242    5.2830 H   0  0  0  0  0  0  0  0  0  0  0  0
    0.3141  -10.7107    4.9771 H   0  0  0  0  0  0  0  0  0  0  0  0
   -0.4105  -11.3166    2.6419 H   0  0  0  0  0  0  0  0  0  0  0  0
   -0.8910   -9.7623   -1.0959 H   0  0  0  0  0  0  0  0  0  0  0  0
   -0.2324   -8.3182   -0.2540 H   0  0  0  0  0  0  0  0  0  0  0  0
   -1.5388   -9.2877    0.5082 H   0  0  0  0  0  0  0  0  0  0  0  0
    2.5612   -8.3083   -1.3360 H   0  0  0  0  0  0  0  0  0  0  0  0
    2.3291   -9.8361   -0.4605 H   0  0  0  0  0  0  0  0  0  0  0  0
    4.7111   -9.5102   -1.1818 H   0  0  0  0  0  0  0  0  0  0  0  0
    4.5712   -9.6374    0.5769 H   0  0  0  0  0  0  0  0  0  0  0  0
    9.8225   -9.2621   -1.3322 H   0  0  0  0  0  0  0  0  0  0  0  0
   10.2393   -7.7538   -2.2198 H   0  0  0  0  0  0  0  0  0  0  0  0
    9.2614   -9.0343   -3.0109 H   0  0  0  0  0  0  0  0  0  0  0  0
    4.3486   -5.2025   -1.5793 H   0  0  0  0  0  0  0  0  0  0  0  0
    3.5507   -2.8505   -1.4369 H   0  0  0  0  0  0  0  0  0  0  0  0
  1  2  1  0
  1 33  1  0
  1 34  1  0
  1 35  1  0
  2  3  1  0
  2 36  1  0
  2 37  1  0
  3  4  1  0
  3 38  1  0
  3 39  1  0
  4  5  1  0
  5  6  2  0
  5 32  1  0
  6  7  1  0
  6 40  1  0
  7  8  2  0
  7 41  1  0
  8  9  1  0
  8 31  1  0
  9 10  2  0
  9 29  1  0
 10 11  1  0
 10 25  1  0
 11 12  1  0
 11 24  1  0
 12 13  1  0
 12 42  1  0
 12 43  1  0
 13 14  1  0
 13 44  1  0
 13 45  1  0
 14 15  1  0
 14 23  1  0
 15 16  2  0
 15 20  1  0
 16 17  1  0
 16 46  1  0
 17 18  2  0
 17 47  1  0
 18 19  1  0
 18 48  1  0
 19 20  2  0
 19 49  1  0
 20 21  1  0
 21 22  1  0
 22 50  1  0
 22 51  1  0
 22 52  1  0
 23 24  1  0
 23 53  1  0
 23 54  1  0
 24 55  1  0
 24 56  1  0
 25 26  2  0
 25 27  1  0
 27 28  1  0
 27 29  1  0
 28 57  1  0
 28 58  1  0
 28 59  1  0
 29 30  2  0
 31 32  2  0
 31 60  1  0
 32 61  1  0
M  END

