
     RDKit          3D

 29 30  0  0  0  0  0  0  0  0999 V2000
    2.8341   -0.5561    0.6648 N   0  0  0  0  0  0  0  0  0  0  0  0
    3.8645   -1.5914    0.7508 C   0  0  0  0  0  0  0  0  0  0  0  0
    4.3212   -2.0031   -0.6475 C   0  0  0  0  0  0  0  0  0  0  0  0
    4.7317   -0.8289   -1.3822 N   0  0  0  0  0  0  0  0  0  0  0  0
    5.3565   -0.8846   -2.6004 C   0  0  0  0  0  0  0  0  0  0  0  0
    5.5562    0.2907   -3.3659 C   0  0  0  0  0  0  0  0  0  0  0  0
    6.2257    0.2111   -4.5816 C   0  0  0  0  0  0  0  0  0  0  0  0
    6.6897   -1.0490   -5.0174 C   0  0  0  0  0  0  0  0  0  0  0  0
    6.4331   -2.1437   -4.1905 C   0  0  0  0  0  0  0  0  0  0  0  0
    5.7874   -2.0834   -3.0256 N   0  0  0  0  0  0  0  0  0  0  0  0
    7.4653   -1.1790   -6.3130 C   0  0  0  0  0  0  0  0  0  0  0  0
    7.3093   -0.0630   -7.1643 O   0  0  0  0  0  0  0  0  0  0  0  0
    7.5381    1.1589   -6.4951 C   0  0  0  0  0  0  0  0  0  0  0  0
    6.4398    1.4217   -5.4645 C   0  0  0  0  0  0  0  0  0  0  0  0
    2.6500   -0.1444    1.5787 H   0  0  0  0  0  0  0  0  0  0  0  0
    1.9506   -0.9542    0.3420 H   0  0  0  0  0  0  0  0  0  0  0  0
    3.5546   -2.5023    1.3036 H   0  0  0  0  0  0  0  0  0  0  0  0
    4.7256   -1.1648    1.2922 H   0  0  0  0  0  0  0  0  0  0  0  0
    3.5019   -2.5469   -1.1661 H   0  0  0  0  0  0  0  0  0  0  0  0
    5.1580   -2.7150   -0.5854 H   0  0  0  0  0  0  0  0  0  0  0  0
    4.1993    0.0038   -1.1475 H   0  0  0  0  0  0  0  0  0  0  0  0
    5.1868    1.2523   -2.9978 H   0  0  0  0  0  0  0  0  0  0  0  0
    6.7691   -3.1440   -4.4985 H   0  0  0  0  0  0  0  0  0  0  0  0
    7.1288   -2.0594   -6.8838 H   0  0  0  0  0  0  0  0  0  0  0  0
    8.5453   -1.3319   -6.0913 H   0  0  0  0  0  0  0  0  0  0  0  0
    7.5555    1.9464   -7.2639 H   0  0  0  0  0  0  0  0  0  0  0  0
    8.5327    1.1503   -6.0003 H   0  0  0  0  0  0  0  0  0  0  0  0
    5.4983    1.6473   -5.9968 H   0  0  0  0  0  0  0  0  0  0  0  0
    6.6807    2.3097   -4.8560 H   0  0  0  0  0  0  0  0  0  0  0  0
  1  2  1  0
  1 15  1  0
  1 16  1  0
  2  3  1  0
  2 17  1  0
  2 18  1  0
  3  4  1  0
  3 19  1  0
  3 20  1  0
  4  5  1  0
  4 21  1  0
  5  6  2  0
  5 10  1  0
  6  7  1  0
  6 22  1  0
  7  8  2  0
  7 14  1  0
  8  9  1  0
  8 11  1  0
  9 10  2  0
  9 23  1  0
 11 12  1  0
 11 24  1  0
 11 25  1  0
 12 13  1  0
 13 14  1  0
 13 26  1  0
 13 27  1  0
 14 28  1  0
 14 29  1  0
M  END

