
     RDKit          3D

 37 37  0  0  0  0  0  0  0  0999 V2000
    2.5055   -1.2198    0.6152 C   0  0  0  0  0  0  0  0  0  0  0  0
    2.1756    0.0114   -0.0731 N   0  0  0  0  0  0  0  0  0  0  0  0
    2.8099    0.1788   -1.3772 C   0  0  0  0  0  0  0  0  0  0  0  0
    2.3397   -0.7799   -2.4921 C   0  0  0  0  0  0  0  0  0  0  0  0
    3.0936   -0.6844   -3.8541 C   0  0  1  0  0  0  0  0  0  0  0  0
    3.0386    0.7546   -4.3951 C   0  0  0  0  0  0  0  0  0  0  0  0
    4.5749   -1.1040   -3.7095 C   0  0  0  0  0  0  0  0  0  0  0  0
    2.3904   -1.6489   -4.8450 C   0  0  0  0  0  0  0  0  0  0  0  0
    1.7481   -1.3279   -5.9049 N   0  0  0  0  0  0  0  0  0  0  0  0
    2.5165   -2.9903   -4.5379 N   0  0  0  0  0  0  0  0  0  0  0  0
    0.7667    0.3402   -0.0201 C   0  0  1  0  0  0  0  0  0  0  0  0
    0.1464    0.6286    1.3732 C   0  0  0  0  0  0  0  0  0  0  0  0
   -0.6688    1.7745    0.7232 C   0  0  0  0  0  0  0  0  0  0  0  0
    0.3339    1.7628   -0.4579 C   0  0  0  0  0  0  0  0  0  0  0  0
    3.5981   -1.3656    0.6224 H   0  0  0  0  0  0  0  0  0  0  0  0
    2.0462   -2.1349    0.1753 H   0  0  0  0  0  0  0  0  0  0  0  0
    2.1719   -1.1668    1.6638 H   0  0  0  0  0  0  0  0  0  0  0  0
    3.8973    0.0693   -1.2269 H   0  0  0  0  0  0  0  0  0  0  0  0
    2.6472    1.2204   -1.6955 H   0  0  0  0  0  0  0  0  0  0  0  0
    1.2672   -0.6084   -2.6870 H   0  0  0  0  0  0  0  0  0  0  0  0
    2.4173   -1.8132   -2.1139 H   0  0  0  0  0  0  0  0  0  0  0  0
    3.5988    1.4399   -3.7427 H   0  0  0  0  0  0  0  0  0  0  0  0
    2.0045    1.1288   -4.4614 H   0  0  0  0  0  0  0  0  0  0  0  0
    3.4913    0.8170   -5.3968 H   0  0  0  0  0  0  0  0  0  0  0  0
    5.1276   -0.4004   -3.0681 H   0  0  0  0  0  0  0  0  0  0  0  0
    5.0695   -1.1168   -4.6933 H   0  0  0  0  0  0  0  0  0  0  0  0
    4.6812   -2.1097   -3.2763 H   0  0  0  0  0  0  0  0  0  0  0  0
    1.7737   -0.3224   -6.0672 H   0  0  0  0  0  0  0  0  0  0  0  0
    2.6693   -3.2675   -3.5779 H   0  0  0  0  0  0  0  0  0  0  0  0
    1.9191   -3.6041   -5.0816 H   0  0  0  0  0  0  0  0  0  0  0  0
    0.1328   -0.4136   -0.5426 H   0  0  0  0  0  0  0  0  0  0  0  0
    0.9181    1.0198    2.0547 H   0  0  0  0  0  0  0  0  0  0  0  0
   -0.4042   -0.1818    1.8752 H   0  0  0  0  0  0  0  0  0  0  0  0
   -0.7715    2.7110    1.2915 H   0  0  0  0  0  0  0  0  0  0  0  0
   -1.6732    1.4441    0.4156 H   0  0  0  0  0  0  0  0  0  0  0  0
    1.1546    2.4775   -0.2899 H   0  0  0  0  0  0  0  0  0  0  0  0
   -0.0579    1.8965   -1.4781 H   0  0  0  0  0  0  0  0  0  0  0  0
  1  2  1  0
  1 15  1  0
  1 16  1  0
  1 17  1  0
  2  3  1  0
  2 11  1  0
  3  4  1  0
  3 18  1  0
  3 19  1  0
  4  5  1  0
  4 20  1  0
  4 21  1  0
  5  6  1  0
  5  7  1  0
  5  8  1  6
  6 22  1  0
  6 23  1  0
  6 24  1  0
  7 25  1  0
  7 26  1  0
  7 27  1  0
  8  9  2  0
  8 10  1  0
  9 28  1  0
 10 29  1  0
 10 30  1  0
 11 12  1  0
 11 14  1  0
 11 31  1  6
 12 13  1  0
 12 32  1  0
 12 33  1  0
 13 14  1  0
 13 34  1  0
 13 35  1  0
 14 36  1  0
 14 37  1  0
M  END

