
     RDKit          3D

 64 69  0  0  0  0  0  0  0  0999 V2000
    3.3106    0.9438   -1.9990 C   0  0  0  0  0  0  0  0  0  0  0  0
    4.3984    0.6590   -0.9704 C   0  0  0  0  0  0  0  0  0  0  0  0
    3.7783    0.9450    0.7049 S   0  0  1  0  0  0  0  0  0  0  0  0
    3.5746    2.3886    0.8743 O   0  0  0  0  0  0  0  0  0  0  0  0
    2.6714    0.0112    0.9659 O   0  0  0  0  0  0  0  0  0  0  0  0
    5.1027    0.4928    1.6995 N   0  0  0  0  0  0  0  0  0  0  0  0
    5.5870    1.5818    2.5639 C   0  0  0  0  0  0  0  0  0  0  0  0
    6.8300    1.2094    3.3404 C   0  0  0  0  0  0  0  0  0  0  0  0
    7.5670    2.2211    3.9761 C   0  0  0  0  0  0  0  0  0  0  0  0
    8.6900    1.9136    4.7426 C   0  0  0  0  0  0  0  0  0  0  0  0
    9.0885    0.5792    4.8843 C   0  0  0  0  0  0  0  0  0  0  0  0
    8.3597   -0.4294    4.2559 C   0  0  0  0  0  0  0  0  0  0  0  0
    7.2289   -0.1281    3.4795 C   0  0  0  0  0  0  0  0  0  0  0  0
    6.4690   -1.2192    2.7675 C   0  0  0  0  0  0  0  0  0  0  0  0
    5.0373   -0.8153    2.3683 C   0  0  2  0  0  0  0  0  0  0  0  0
    4.5085   -1.9449    1.4576 C   0  0  0  0  0  0  0  0  0  0  0  0
    5.0196   -2.1686    0.3724 O   0  0  0  0  0  0  0  0  0  0  0  0
    3.5470   -2.7200    2.0416 N   0  0  0  0  0  0  0  0  0  0  0  0
    2.9237   -3.8815    1.5458 C   0  0  0  0  0  0  0  0  0  0  0  0
    3.3212   -4.5286    0.3630 C   0  0  0  0  0  0  0  0  0  0  0  0
    2.6604   -5.6872   -0.0442 C   0  0  0  0  0  0  0  0  0  0  0  0
    1.6111   -6.2190    0.7074 C   0  0  0  0  0  0  0  0  0  0  0  0
    0.9416   -7.4220    0.2743 N   0  0  0  0  0  0  0  0  0  0  0  0
    1.6607   -8.6349    0.3695 C   0  0  0  0  0  0  0  0  0  0  0  0
    2.7941   -8.6559    0.8039 O   0  0  0  0  0  0  0  0  0  0  0  0
    0.9543   -9.8630   -0.0879 C   0  0  0  0  0  0  0  0  0  0  0  0
    1.6064  -11.0847   -0.0209 C   0  0  0  0  0  0  0  0  0  0  0  0
    0.9592  -12.2648   -0.4496 C   0  0  0  0  0  0  0  0  0  0  0  0
   -0.3318  -12.2157   -0.9413 C   0  0  0  0  0  0  0  0  0  0  0  0
   -1.0331  -10.9815   -1.0249 C   0  0  0  0  0  0  0  0  0  0  0  0
   -2.3612  -10.8777   -1.5226 C   0  0  0  0  0  0  0  0  0  0  0  0
   -3.0012   -9.6540   -1.5833 C   0  0  0  0  0  0  0  0  0  0  0  0
   -2.3443   -8.4811   -1.1494 C   0  0  0  0  0  0  0  0  0  0  0  0
   -1.0492   -8.5435   -0.6583 C   0  0  0  0  0  0  0  0  0  0  0  0
   -0.3724   -9.7896   -0.5882 C   0  0  0  0  0  0  0  0  0  0  0  0
   -0.3813   -7.2921   -0.2065 C   0  0  0  0  0  0  0  0  0  0  0  0
   -0.9283   -6.2091   -0.2422 O   0  0  0  0  0  0  0  0  0  0  0  0
    1.2135   -5.5770    1.8828 C   0  0  0  0  0  0  0  0  0  0  0  0
    1.8618   -4.4175    2.2962 C   0  0  0  0  0  0  0  0  0  0  0  0
    3.7093    0.7758   -3.0113 H   0  0  0  0  0  0  0  0  0  0  0  0
    2.9625    1.9852   -1.9310 H   0  0  0  0  0  0  0  0  0  0  0  0
    2.4499    0.2755   -1.8506 H   0  0  0  0  0  0  0  0  0  0  0  0
    5.2639    1.3309   -1.0666 H   0  0  0  0  0  0  0  0  0  0  0  0
    4.7463   -0.3832   -0.9779 H   0  0  0  0  0  0  0  0  0  0  0  0
    4.8000    1.8966    3.2792 H   0  0  0  0  0  0  0  0  0  0  0  0
    5.7853    2.4594    1.9346 H   0  0  0  0  0  0  0  0  0  0  0  0
    7.2525    3.2633    3.8654 H   0  0  0  0  0  0  0  0  0  0  0  0
    9.2553    2.7124    5.2291 H   0  0  0  0  0  0  0  0  0  0  0  0
    9.9663    0.3272    5.4847 H   0  0  0  0  0  0  0  0  0  0  0  0
    8.6695   -1.4731    4.3638 H   0  0  0  0  0  0  0  0  0  0  0  0
    6.4245   -2.1282    3.3899 H   0  0  0  0  0  0  0  0  0  0  0  0
    6.9929   -1.4946    1.8366 H   0  0  0  0  0  0  0  0  0  0  0  0
    4.4062   -0.7437    3.2770 H   0  0  0  0  0  0  0  0  0  0  0  0
    3.1250   -2.3344    2.8780 H   0  0  0  0  0  0  0  0  0  0  0  0
    4.1355   -4.1156   -0.2265 H   0  0  0  0  0  0  0  0  0  0  0  0
    2.9723   -6.1875   -0.9628 H   0  0  0  0  0  0  0  0  0  0  0  0
    2.6260  -11.1080    0.3687 H   0  0  0  0  0  0  0  0  0  0  0  0
    1.4863  -13.2198   -0.3908 H   0  0  0  0  0  0  0  0  0  0  0  0
   -0.8314  -13.1298   -1.2735 H   0  0  0  0  0  0  0  0  0  0  0  0
   -2.8712  -11.7848   -1.8581 H   0  0  0  0  0  0  0  0  0  0  0  0
   -4.0215   -9.5886   -1.9683 H   0  0  0  0  0  0  0  0  0  0  0  0
   -2.8375   -7.5080   -1.1905 H   0  0  0  0  0  0  0  0  0  0  0  0
    0.3899   -5.9819    2.4731 H   0  0  0  0  0  0  0  0  0  0  0  0
    1.5403   -3.9193    3.2153 H   0  0  0  0  0  0  0  0  0  0  0  0
  1  2  1  0
  1 40  1  0
  1 41  1  0
  1 42  1  0
  3  2  1  6
  2 43  1  0
  2 44  1  0
  3  4  2  0
  3  5  2  0
  3  6  1  0
  6  7  1  0
  6 15  1  0
  7  8  1  0
  7 45  1  0
  7 46  1  0
  8  9  1  0
  8 13  2  0
  9 10  2  0
  9 47  1  0
 10 11  1  0
 10 48  1  0
 11 12  2  0
 11 49  1  0
 12 13  1  0
 12 50  1  0
 13 14  1  0
 14 15  1  0
 14 51  1  0
 14 52  1  0
 15 16  1  0
 15 53  1  1
 16 17  2  0
 16 18  1  0
 18 19  1  0
 18 54  1  0
 19 20  2  0
 19 39  1  0
 20 21  1  0
 20 55  1  0
 21 22  2  0
 21 56  1  0
 22 23  1  0
 22 38  1  0
 23 24  1  0
 23 36  1  0
 24 25  2  0
 24 26  1  0
 26 27  2  0
 26 35  1  0
 27 28  1  0
 27 57  1  0
 28 29  2  0
 28 58  1  0
 29 30  1  0
 29 59  1  0
 30 31  1  0
 30 35  2  0
 31 32  2  0
 31 60  1  0
 32 33  1  0
 32 61  1  0
 33 34  2  0
 33 62  1  0
 34 35  1  0
 34 36  1  0
 36 37  2  0
 38 39  2  0
 38 63  1  0
 39 64  1  0
M  END

