
     RDKit          3D

 61 64  0  0  0  0  0  0  0  0999 V2000
    7.7391    2.5118    3.0134 C   0  0  0  0  0  0  0  0  0  0  0  0
    8.2044    1.8571    1.8367 O   0  0  0  0  0  0  0  0  0  0  0  0
    9.4143    1.2733    1.9401 C   0  0  0  0  0  0  0  0  0  0  0  0
   10.0787    1.2472    2.9508 O   0  0  0  0  0  0  0  0  0  0  0  0
    9.7817    0.6638    0.7522 N   0  0  0  0  0  0  0  0  0  0  0  0
   11.1295    0.1372    0.5965 C   0  0  0  0  0  0  0  0  0  0  0  0
    9.0592    0.9021   -0.3973 N   0  0  0  0  0  0  0  0  0  0  0  0
    9.2283    2.0755   -1.0844 C   0  0  0  0  0  0  0  0  0  0  0  0
   10.0399    2.9235   -0.7654 O   0  0  0  0  0  0  0  0  0  0  0  0
    8.2902    2.2875   -2.2554 C   0  0  0  0  0  0  0  0  0  0  0  0
    7.6970    3.5570   -2.3074 C   0  0  0  0  0  0  0  0  0  0  0  0
    6.8420    3.8822   -3.3554 C   0  0  0  0  0  0  0  0  0  0  0  0
    6.0901    5.4575   -3.4040 Cl  0  0  0  0  0  0  0  0  0  0  0  0
    6.5808    2.9648   -4.3756 C   0  0  0  0  0  0  0  0  0  0  0  0
    7.1780    1.7004   -4.3590 C   0  0  0  0  0  0  0  0  0  0  0  0
    6.9118    0.7172   -5.4729 C   0  0  0  0  0  0  0  0  0  0  0  0
    8.0392    1.3644   -3.2885 C   0  0  0  0  0  0  0  0  0  0  0  0
    8.6876    0.0875   -3.3485 N   0  0  0  0  0  0  0  0  0  0  0  0
    8.2571   -1.0254   -2.6807 C   0  0  0  0  0  0  0  0  0  0  0  0
    7.4142   -1.0047   -1.7949 O   0  0  0  0  0  0  0  0  0  0  0  0
    8.9402   -2.2865   -3.0893 C   0  0  0  0  0  0  0  0  0  0  0  0
   10.2579   -2.5436   -3.4319 C   0  0  0  0  0  0  0  0  0  0  0  0
   10.3108   -3.9505   -3.6098 C   0  0  0  0  0  0  0  0  0  0  0  0
   11.4874   -4.8120   -3.9679 C   0  0  0  0  0  0  0  0  0  0  0  0
   12.0801   -4.4556   -5.2571 N   0  0  0  0  0  0  0  0  0  0  0  0
   11.9713   -5.2186   -6.3369 N   0  0  0  0  0  0  0  0  0  0  0  0
   12.5836   -4.5856   -7.2970 N   0  0  0  0  0  0  0  0  0  0  0  0
   13.0452   -3.4414   -6.7513 C   0  0  0  0  0  0  0  0  0  0  0  0
   13.8173   -2.3866   -7.5005 C   0  0  1  0  0  0  0  0  0  0  0  0
   14.0026   -2.7459   -8.7691 F   0  0  0  0  0  0  0  0  0  0  0  0
   13.1588   -1.2165   -7.4854 F   0  0  0  0  0  0  0  0  0  0  0  0
   15.0163   -2.1811   -6.9383 F   0  0  0  0  0  0  0  0  0  0  0  0
   12.7417   -3.3334   -5.4639 N   0  0  0  0  0  0  0  0  0  0  0  0
    9.1245   -4.5086   -3.4001 N   0  0  0  0  0  0  0  0  0  0  0  0
    8.3038   -3.5021   -3.0672 N   0  0  0  0  0  0  0  0  0  0  0  0
    6.9036   -3.7387   -2.9184 C   0  0  0  0  0  0  0  0  0  0  0  0
    6.1097   -3.0460   -3.7229 N   0  0  0  0  0  0  0  0  0  0  0  0
    4.7913   -3.2246   -3.6461 C   0  0  0  0  0  0  0  0  0  0  0  0
    4.2065   -4.1359   -2.7633 C   0  0  0  0  0  0  0  0  0  0  0  0
    5.0366   -4.8641   -1.9124 C   0  0  0  0  0  0  0  0  0  0  0  0
    6.4178   -4.6613   -1.9739 C   0  0  0  0  0  0  0  0  0  0  0  0
    7.4620   -5.5001   -0.8720 Cl  0  0  0  0  0  0  0  0  0  0  0  0
    6.7476    2.9117    2.7660 H   0  0  0  0  0  0  0  0  0  0  0  0
    8.4164    3.3301    3.3016 H   0  0  0  0  0  0  0  0  0  0  0  0
    7.6661    1.8067    3.8553 H   0  0  0  0  0  0  0  0  0  0  0  0
   11.5480   -0.0245    1.5966 H   0  0  0  0  0  0  0  0  0  0  0  0
   11.7698    0.8494    0.0494 H   0  0  0  0  0  0  0  0  0  0  0  0
   11.0953   -0.8200    0.0536 H   0  0  0  0  0  0  0  0  0  0  0  0
    8.2653    0.2888   -0.5957 H   0  0  0  0  0  0  0  0  0  0  0  0
    7.9231    4.2822   -1.5256 H   0  0  0  0  0  0  0  0  0  0  0  0
    5.9079    3.2417   -5.1890 H   0  0  0  0  0  0  0  0  0  0  0  0
    6.1196    1.0860   -6.1391 H   0  0  0  0  0  0  0  0  0  0  0  0
    6.6080   -0.2681   -5.0844 H   0  0  0  0  0  0  0  0  0  0  0  0
    7.8095    0.5539   -6.0954 H   0  0  0  0  0  0  0  0  0  0  0  0
    9.2755   -0.0776   -4.1600 H   0  0  0  0  0  0  0  0  0  0  0  0
   11.0772   -1.8333   -3.5127 H   0  0  0  0  0  0  0  0  0  0  0  0
   11.1643   -5.8560   -4.0526 H   0  0  0  0  0  0  0  0  0  0  0  0
   12.2856   -4.7365   -3.2145 H   0  0  0  0  0  0  0  0  0  0  0  0
    4.1746   -2.6218   -4.3204 H   0  0  0  0  0  0  0  0  0  0  0  0
    3.1230   -4.2681   -2.7354 H   0  0  0  0  0  0  0  0  0  0  0  0
    4.6317   -5.5750   -1.1901 H   0  0  0  0  0  0  0  0  0  0  0  0
  1  2  1  0
  1 43  1  0
  1 44  1  0
  1 45  1  0
  2  3  1  0
  3  4  2  0
  3  5  1  0
  5  6  1  0
  5  7  1  0
  6 46  1  0
  6 47  1  0
  6 48  1  0
  7  8  1  0
  7 49  1  0
  8  9  2  0
  8 10  1  0
 10 11  2  0
 10 17  1  0
 11 12  1  0
 11 50  1  0
 12 13  1  0
 12 14  2  0
 14 15  1  0
 14 51  1  0
 15 16  1  0
 15 17  2  0
 16 52  1  0
 16 53  1  0
 16 54  1  0
 17 18  1  0
 18 19  1  0
 18 55  1  0
 19 20  2  0
 19 21  1  0
 21 22  2  0
 21 35  1  0
 22 23  1  0
 22 56  1  0
 23 24  1  0
 23 34  2  0
 24 25  1  0
 24 57  1  0
 24 58  1  0
 25 26  1  0
 25 33  1  0
 26 27  2  0
 27 28  1  0
 28 29  1  0
 28 33  2  0
 29 30  1  6
 29 31  1  0
 29 32  1  0
 34 35  1  0
 35 36  1  0
 36 37  2  0
 36 41  1  0
 37 38  1  0
 38 39  2  0
 38 59  1  0
 39 40  1  0
 39 60  1  0
 40 41  2  0
 40 61  1  0
 41 42  1  0
M  END

