
     RDKit          3D

 49 50  0  0  0  0  0  0  0  0999 V2000
    1.2358   -0.1155   -3.0611 C   0  0  0  0  0  0  0  0  0  0  0  0
    2.6259   -0.0974   -2.4723 C   0  0  0  0  0  0  0  0  0  0  0  0
    3.0253    0.9138   -1.5824 C   0  0  0  0  0  0  0  0  0  0  0  0
    4.3150    0.9024   -1.0545 C   0  0  0  0  0  0  0  0  0  0  0  0
    5.2460   -0.0969   -1.3753 C   0  0  0  0  0  0  0  0  0  0  0  0
    6.6143   -0.1474   -0.7594 C   0  0  0  0  0  0  0  0  0  0  0  0
    7.0756   -1.2264   -0.3781 O   0  0  0  0  0  0  0  0  0  0  0  0
    7.3378    1.0193   -0.6107 N   0  0  0  0  0  0  0  0  0  0  0  0
    8.6073    0.9356    0.1066 C   0  0  0  0  0  0  0  0  0  0  0  0
    8.8703    2.0994    1.0696 C   0  0  0  0  0  0  0  0  0  0  0  0
    9.1937    3.4511    0.4068 C   0  0  0  0  0  0  0  0  0  0  0  0
    8.0122    4.3259   -0.1028 C   0  0  2  0  0  0  0  0  0  0  0  0
    7.6104    5.4885    0.8817 C   0  0  1  0  0  0  0  0  0  0  0  0
    8.7740    6.4970    0.9890 C   0  0  0  0  0  0  0  0  0  0  0  0
    6.3898    6.2591    0.3346 C   0  0  0  0  0  0  0  0  0  0  0  0
    7.2712    4.9668    2.2922 C   0  0  0  0  0  0  0  0  0  0  0  0
    6.8000    3.4903   -0.5726 C   0  0  0  0  0  0  0  0  0  0  0  0
    7.1219    2.2305   -1.3997 C   0  0  0  0  0  0  0  0  0  0  0  0
    4.8321   -1.1626   -2.2311 C   0  0  0  0  0  0  0  0  0  0  0  0
    5.6872   -2.1908   -2.5505 N   0  0  0  0  0  0  0  0  0  0  0  0
    3.5334   -1.1137   -2.7803 C   0  0  0  0  0  0  0  0  0  0  0  0
    0.6991    0.8235   -2.8604 H   0  0  0  0  0  0  0  0  0  0  0  0
    0.6356   -0.9394   -2.6379 H   0  0  0  0  0  0  0  0  0  0  0  0
    1.2631   -0.2661   -4.1525 H   0  0  0  0  0  0  0  0  0  0  0  0
    2.3267    1.7059   -1.3026 H   0  0  0  0  0  0  0  0  0  0  0  0
    4.6047    1.6868   -0.3529 H   0  0  0  0  0  0  0  0  0  0  0  0
    9.4400    0.8778   -0.6238 H   0  0  0  0  0  0  0  0  0  0  0  0
    8.6002   -0.0172    0.6489 H   0  0  0  0  0  0  0  0  0  0  0  0
    9.7456    1.8037    1.6732 H   0  0  0  0  0  0  0  0  0  0  0  0
    8.0317    2.1867    1.7794 H   0  0  0  0  0  0  0  0  0  0  0  0
    9.8720    3.2457   -0.4396 H   0  0  0  0  0  0  0  0  0  0  0  0
    9.8002    4.0448    1.1063 H   0  0  0  0  0  0  0  0  0  0  0  0
    8.3874    4.8447   -1.0042 H   0  0  0  0  0  0  0  0  0  0  0  0
    9.0208    6.9253    0.0033 H   0  0  0  0  0  0  0  0  0  0  0  0
    9.6908    6.0439    1.3958 H   0  0  0  0  0  0  0  0  0  0  0  0
    8.5012    7.3311    1.6558 H   0  0  0  0  0  0  0  0  0  0  0  0
    6.5563    6.5933   -0.7034 H   0  0  0  0  0  0  0  0  0  0  0  0
    6.2030    7.1577    0.9447 H   0  0  0  0  0  0  0  0  0  0  0  0
    5.4687    5.6578    0.3534 H   0  0  0  0  0  0  0  0  0  0  0  0
    8.1374    4.4891    2.7756 H   0  0  0  0  0  0  0  0  0  0  0  0
    6.4469    4.2360    2.2758 H   0  0  0  0  0  0  0  0  0  0  0  0
    6.9544    5.7996    2.9414 H   0  0  0  0  0  0  0  0  0  0  0  0
    6.1540    4.1318   -1.1904 H   0  0  0  0  0  0  0  0  0  0  0  0
    6.1857    3.1819    0.2889 H   0  0  0  0  0  0  0  0  0  0  0  0
    8.0232    2.4079   -2.0178 H   0  0  0  0  0  0  0  0  0  0  0  0
    6.3062    2.0349   -2.1037 H   0  0  0  0  0  0  0  0  0  0  0  0
    6.4145   -2.3669   -1.8604 H   0  0  0  0  0  0  0  0  0  0  0  0
    5.2725   -3.0094   -2.9776 H   0  0  0  0  0  0  0  0  0  0  0  0
    3.2276   -1.9190   -3.4564 H   0  0  0  0  0  0  0  0  0  0  0  0
  1  2  1  0
  1 22  1  0
  1 23  1  0
  1 24  1  0
  2  3  2  0
  2 21  1  0
  3  4  1  0
  3 25  1  0
  4  5  2  0
  4 26  1  0
  5  6  1  0
  5 19  1  0
  6  7  2  0
  6  8  1  0
  8  9  1  0
  8 18  1  0
  9 10  1  0
  9 27  1  0
  9 28  1  0
 10 11  1  0
 10 29  1  0
 10 30  1  0
 11 12  1  0
 11 31  1  0
 11 32  1  0
 12 13  1  0
 12 17  1  0
 12 33  1  6
 13 14  1  1
 13 15  1  0
 13 16  1  0
 14 34  1  0
 14 35  1  0
 14 36  1  0
 15 37  1  0
 15 38  1  0
 15 39  1  0
 16 40  1  0
 16 41  1  0
 16 42  1  0
 17 18  1  0
 17 43  1  0
 17 44  1  0
 18 45  1  0
 18 46  1  0
 19 20  1  0
 19 21  2  0
 20 47  1  0
 20 48  1  0
 21 49  1  0
M  END

