
     RDKit          3D

 33 35  0  0  0  0  0  0  0  0999 V2000
    3.1178   -1.1396    1.4203 C   0  0  0  0  0  0  0  0  0  0  0  0
    2.3787   -0.1407    0.5140 C   0  0  0  0  0  0  0  0  0  0  0  0
    2.9693    1.2426    0.5196 C   0  0  0  0  0  0  0  0  0  0  0  0
    3.9255    1.7554   -0.3585 C   0  0  0  0  0  0  0  0  0  0  0  0
    4.5657    1.0547   -1.5164 C   0  0  0  0  0  0  0  0  0  0  0  0
    4.1932    3.0970    0.0677 C   0  0  0  0  0  0  0  0  0  0  0  0
    5.0499    4.0588   -0.4456 C   0  0  0  0  0  0  0  0  0  0  0  0
    5.1666    5.3310    0.1317 C   0  0  0  0  0  0  0  0  0  0  0  0
    5.9664    6.4479   -0.2209 C   0  0  0  0  0  0  0  0  0  0  0  0
    5.6824    7.4565    0.7002 C   0  0  0  0  0  0  0  0  0  0  0  0
    4.7200    6.9324    1.5884 C   0  0  0  0  0  0  0  0  0  0  0  0
    4.4145    5.6683    1.2494 N   0  0  0  0  0  0  0  0  0  0  0  0
    3.3906    4.7320    1.9767 B   0  0  2  0  0  0  0  0  0  0  0  0
    2.1218    5.2910    1.9308 F   0  0  0  0  0  0  0  0  0  0  0  0
    3.7889    4.5181    3.2874 F   0  0  0  0  0  0  0  0  0  0  0  0
    3.4056    3.3706    1.1860 N   0  0  0  0  0  0  0  0  0  0  0  0
    2.6763    2.2775    1.4642 C   0  0  0  0  0  0  0  0  0  0  0  0
    1.7227    2.2383    2.6111 C   0  0  0  0  0  0  0  0  0  0  0  0
    2.6511   -2.1369    1.3735 H   0  0  0  0  0  0  0  0  0  0  0  0
    3.1060   -0.8102    2.4716 H   0  0  0  0  0  0  0  0  0  0  0  0
    4.1728   -1.2446    1.1211 H   0  0  0  0  0  0  0  0  0  0  0  0
    1.3191   -0.0929    0.8172 H   0  0  0  0  0  0  0  0  0  0  0  0
    2.3741   -0.5262   -0.5193 H   0  0  0  0  0  0  0  0  0  0  0  0
    3.8194    0.5083   -2.1154 H   0  0  0  0  0  0  0  0  0  0  0  0
    5.3098    0.3122   -1.1793 H   0  0  0  0  0  0  0  0  0  0  0  0
    5.0823    1.7542   -2.1895 H   0  0  0  0  0  0  0  0  0  0  0  0
    5.6548    3.8250   -1.3238 H   0  0  0  0  0  0  0  0  0  0  0  0
    6.6628    6.4860   -1.0572 H   0  0  0  0  0  0  0  0  0  0  0  0
    6.1089    8.4567    0.7414 H   0  0  0  0  0  0  0  0  0  0  0  0
    4.2439    7.4097    2.4440 H   0  0  0  0  0  0  0  0  0  0  0  0
    1.0254    3.0883    2.5546 H   0  0  0  0  0  0  0  0  0  0  0  0
    2.2671    2.3477    3.5630 H   0  0  0  0  0  0  0  0  0  0  0  0
    1.1540    1.3000    2.6301 H   0  0  0  0  0  0  0  0  0  0  0  0
  1  2  1  0
  1 19  1  0
  1 20  1  0
  1 21  1  0
  2  3  1  0
  2 22  1  0
  2 23  1  0
  3  4  2  0
  3 17  1  0
  4  5  1  0
  4  6  1  0
  5 24  1  0
  5 25  1  0
  5 26  1  0
  6  7  2  0
  6 16  1  0
  7  8  1  0
  7 27  1  0
  8  9  2  0
  8 12  1  0
  9 10  1  0
  9 28  1  0
 10 11  2  0
 10 29  1  0
 11 12  1  0
 11 30  1  0
 12 13  1  0
 13 14  1  1
 13 15  1  0
 13 16  1  0
 16 17  2  0
 17 18  1  0
 18 31  1  0
 18 32  1  0
 18 33  1  0
M  CHG  2  13  -1  16   1
M  END

