
     RDKit          3D

 23 24  0  0  0  0  0  0  0  0999 V2000
    2.7461   -2.3583   -1.8869 C   0  0  0  0  0  0  0  0  0  0  0  0
    2.4093   -1.1836   -0.9698 C   0  0  0  0  0  0  0  0  0  0  0  0
    3.0082   -1.2944    0.4492 C   0  0  0  0  0  0  0  0  0  0  0  0
    4.5080   -1.2236    0.4938 C   0  0  0  0  0  0  0  0  0  0  0  0
    5.3078   -2.2469    0.4392 N   0  0  0  0  0  0  0  0  0  0  0  0
    6.6337   -1.8712    0.4521 C   0  0  0  0  0  0  0  0  0  0  0  0
    7.6760   -2.8907    0.4034 C   0  0  0  0  0  0  0  0  0  0  0  0
    7.5407   -4.2508    0.3446 C   0  0  0  0  0  0  0  0  0  0  0  0
    8.7925   -4.7908    0.3159 O   0  0  0  0  0  0  0  0  0  0  0  0
    9.6272   -3.7289    0.3590 C   0  0  0  0  0  0  0  0  0  0  0  0
    9.0328   -2.5833    0.4113 N   0  0  0  0  0  0  0  0  0  0  0  0
    6.8587   -0.5159    0.5157 C   0  0  0  0  0  0  0  0  0  0  0  0
    5.3515    0.3245    0.5654 S   0  0  0  0  0  0  0  0  0  0  0  0
    2.3018   -2.2189   -2.8851 H   0  0  0  0  0  0  0  0  0  0  0  0
    2.3596   -3.3063   -1.4771 H   0  0  0  0  0  0  0  0  0  0  0  0
    3.8332   -2.4774   -2.0125 H   0  0  0  0  0  0  0  0  0  0  0  0
    1.3139   -1.0953   -0.8666 H   0  0  0  0  0  0  0  0  0  0  0  0
    2.7495   -0.2380   -1.4273 H   0  0  0  0  0  0  0  0  0  0  0  0
    2.7168   -2.2561    0.9016 H   0  0  0  0  0  0  0  0  0  0  0  0
    2.5883   -0.4953    1.0813 H   0  0  0  0  0  0  0  0  0  0  0  0
    6.6933   -4.9273    0.3192 H   0  0  0  0  0  0  0  0  0  0  0  0
   10.6955   -3.9394    0.3455 H   0  0  0  0  0  0  0  0  0  0  0  0
    7.8193   -0.0071    0.5437 H   0  0  0  0  0  0  0  0  0  0  0  0
  1  2  1  0
  1 14  1  0
  1 15  1  0
  1 16  1  0
  2  3  1  0
  2 17  1  0
  2 18  1  0
  3  4  1  0
  3 19  1  0
  3 20  1  0
  4  5  2  0
  4 13  1  0
  5  6  1  0
  6  7  1  0
  6 12  2  0
  7  8  2  0
  7 11  1  0
  8  9  1  0
  8 21  1  0
  9 10  1  0
 10 11  2  0
 10 22  1  0
 12 13  1  0
 12 23  1  0
M  END

