
     RDKit          3D

 45 48  0  0  0  0  0  0  0  0999 V2000
    0.7929   -0.1110   -0.5300 C   0  0  0  0  0  0  0  0  0  0  0  0
    2.2413   -0.0538   -0.0107 C   0  0  1  0  0  0  0  0  0  0  0  0
    3.1720   -0.2088   -1.2517 C   0  0  0  0  0  0  0  0  0  0  0  0
    4.6619    0.0815   -1.0708 C   0  0  0  0  0  0  0  0  0  0  0  0
    5.0721    1.2293   -1.0123 O   0  0  0  0  0  0  0  0  0  0  0  0
    5.4658   -1.0318   -1.0081 N   0  0  0  0  0  0  0  0  0  0  0  0
    6.8621   -1.1041   -0.8024 C   0  0  0  0  0  0  0  0  0  0  0  0
    7.4041   -2.3614   -0.4755 C   0  0  0  0  0  0  0  0  0  0  0  0
    8.7769   -2.5058   -0.2769 C   0  0  0  0  0  0  0  0  0  0  0  0
    9.6284   -1.4031   -0.3979 C   0  0  0  0  0  0  0  0  0  0  0  0
    9.0866   -0.1542   -0.7143 C   0  0  0  0  0  0  0  0  0  0  0  0
    7.7137    0.0093   -0.9166 C   0  0  0  0  0  0  0  0  0  0  0  0
    2.4555    1.2749    0.7570 C   0  0  0  0  0  0  0  0  0  0  0  0
    3.5506    1.2483    1.8050 C   0  0  0  0  0  0  0  0  0  0  0  0
    3.9901    2.4439    2.3871 C   0  0  0  0  0  0  0  0  0  0  0  0
    5.0295    2.4367    3.3172 C   0  0  0  0  0  0  0  0  0  0  0  0
    5.6011    4.0746    4.1061 Br  0  0  0  0  0  0  0  0  0  0  0  0
    5.6791    1.2527    3.6641 C   0  0  0  0  0  0  0  0  0  0  0  0
    5.2506    0.0532    3.0870 C   0  0  0  0  0  0  0  0  0  0  0  0
    5.8912   -1.1523    3.3540 N   0  0  0  0  0  0  0  0  0  0  0  0
    6.6792   -1.1611    3.9969 H   0  0  0  0  0  0  0  0  0  0  0  0
    5.6563   -2.3458    2.7094 C   0  0  0  0  0  0  0  0  0  0  0  0
    6.3077   -3.3447    2.9099 O   0  0  0  0  0  0  0  0  0  0  0  0
    4.4694   -2.3471    1.7348 C   0  0  0  0  0  0  0  0  0  0  0  0
    4.1985   -3.3489    1.0995 O   0  0  0  0  0  0  0  0  0  0  0  0
    3.7274   -1.1842    1.6617 N   0  0  0  0  0  0  0  0  0  0  0  0
    4.1583    0.0423    2.1952 C   0  0  0  0  0  0  0  0  0  0  0  0
    2.4319   -1.2146    0.9792 C   0  0  0  0  0  0  0  0  0  0  0  0
    0.5812    0.7480   -1.1857 H   0  0  0  0  0  0  0  0  0  0  0  0
    0.0704   -0.0864    0.3014 H   0  0  0  0  0  0  0  0  0  0  0  0
    0.6105   -1.0304   -1.1092 H   0  0  0  0  0  0  0  0  0  0  0  0
    2.8385    0.5152   -2.0108 H   0  0  0  0  0  0  0  0  0  0  0  0
    3.0164   -1.2149   -1.6744 H   0  0  0  0  0  0  0  0  0  0  0  0
    4.9936   -1.9301   -1.0043 H   0  0  0  0  0  0  0  0  0  0  0  0
    6.7423   -3.2231   -0.3510 H   0  0  0  0  0  0  0  0  0  0  0  0
    9.1781   -3.4883   -0.0165 H   0  0  0  0  0  0  0  0  0  0  0  0
   10.7039   -1.5163   -0.2420 H   0  0  0  0  0  0  0  0  0  0  0  0
    9.7412    0.7165   -0.8077 H   0  0  0  0  0  0  0  0  0  0  0  0
    7.2918    0.9834   -1.1518 H   0  0  0  0  0  0  0  0  0  0  0  0
    1.5066    1.5440    1.2542 H   0  0  0  0  0  0  0  0  0  0  0  0
    2.6762    2.0854    0.0454 H   0  0  0  0  0  0  0  0  0  0  0  0
    3.5286    3.3876    2.0920 H   0  0  0  0  0  0  0  0  0  0  0  0
    6.5174    1.2566    4.3623 H   0  0  0  0  0  0  0  0  0  0  0  0
    1.6413   -1.1619    1.7493 H   0  0  0  0  0  0  0  0  0  0  0  0
    2.3534   -2.1890    0.4821 H   0  0  0  0  0  0  0  0  0  0  0  0
  2  1  1  6
  1 29  1  0
  1 30  1  0
  1 31  1  0
  2  3  1  0
  2 13  1  0
  2 28  1  0
  3  4  1  0
  3 32  1  0
  3 33  1  0
  4  5  2  0
  4  6  1  0
  6  7  1  0
  6 34  1  0
  7  8  2  0
  7 12  1  0
  8  9  1  0
  8 35  1  0
  9 10  2  0
  9 36  1  0
 10 11  1  0
 10 37  1  0
 11 12  2  0
 11 38  1  0
 12 39  1  0
 13 14  1  0
 13 40  1  0
 13 41  1  0
 14 15  2  0
 14 27  1  0
 15 16  1  0
 15 42  1  0
 16 17  1  0
 16 18  2  0
 18 19  1  0
 18 43  1  0
 19 20  1  0
 19 27  2  0
 20 21  1  0
 20 22  1  0
 22 23  2  0
 22 24  1  0
 24 25  2  0
 24 26  1  0
 26 27  1  0
 26 28  1  0
 28 44  1  0
 28 45  1  0
M  END

