
     RDKit          3D

 44 45  0  0  0  0  0  0  0  0999 V2000
    1.6843    0.6703    2.8927 C   0  0  0  0  0  0  0  0  0  0  0  0
    1.9874   -0.6678    2.3996 N   0  0  0  0  0  0  0  0  0  0  0  0
    0.7955   -1.5012    2.4254 C   0  0  0  0  0  0  0  0  0  0  0  0
    2.8353   -0.7063    1.1796 C   0  0  1  0  0  0  0  0  0  0  0  0
    4.2763   -0.3109    1.6056 C   0  0  0  0  0  0  0  0  0  0  0  0
    4.7991   -1.1625    2.6510 N   0  0  0  0  0  0  0  0  0  0  0  0
    5.8148   -2.0605    2.4004 C   0  0  0  0  0  0  0  0  0  0  0  0
    6.3780   -2.1302    1.3139 O   0  0  0  0  0  0  0  0  0  0  0  0
    6.1710   -2.8915    3.4589 N   0  0  0  0  0  0  0  0  0  0  0  0
    5.8525   -2.6579    4.8617 C   0  0  0  0  0  0  0  0  0  0  0  0
    5.4676   -3.9677    5.5576 C   0  0  0  0  0  0  0  0  0  0  0  0
    6.5646   -5.0455    5.3835 C   0  0  2  0  0  0  0  0  0  0  0  0
    7.7507   -4.7276    6.1961 C   0  0  0  0  0  0  0  0  0  0  0  0
    8.6835   -4.4644    6.8318 N   0  0  0  0  0  0  0  0  0  0  0  0
    6.9287   -5.1914    3.8858 C   0  0  0  0  0  0  0  0  0  0  0  0
    7.2593   -3.8407    3.2475 C   0  0  0  0  0  0  0  0  0  0  0  0
    2.8475   -2.1004    0.5086 C   0  0  0  0  0  0  0  0  0  0  0  0
    3.6019   -1.9832   -0.8148 C   0  0  0  0  0  0  0  0  0  0  0  0
    3.1426   -0.3304   -1.5175 S   0  0  0  0  0  0  0  0  0  0  0  0
    2.3565    0.2408    0.0477 C   0  0  0  0  0  0  0  0  0  0  0  0
    1.2977    0.6040    3.9227 H   0  0  0  0  0  0  0  0  0  0  0  0
    0.9198    1.2052    2.2889 H   0  0  0  0  0  0  0  0  0  0  0  0
    2.5849    1.2985    2.9219 H   0  0  0  0  0  0  0  0  0  0  0  0
    0.3161   -1.3970    3.4116 H   0  0  0  0  0  0  0  0  0  0  0  0
    1.0400   -2.5641    2.2966 H   0  0  0  0  0  0  0  0  0  0  0  0
    0.0310   -1.2281    1.6641 H   0  0  0  0  0  0  0  0  0  0  0  0
    4.2739    0.7380    1.9475 H   0  0  0  0  0  0  0  0  0  0  0  0
    4.9594   -0.3582    0.7505 H   0  0  0  0  0  0  0  0  0  0  0  0
    4.1294   -1.3554    3.3879 H   0  0  0  0  0  0  0  0  0  0  0  0
    5.0390   -1.9300    4.9622 H   0  0  0  0  0  0  0  0  0  0  0  0
    6.7283   -2.2131    5.3770 H   0  0  0  0  0  0  0  0  0  0  0  0
    4.5379   -4.3568    5.1106 H   0  0  0  0  0  0  0  0  0  0  0  0
    5.2741   -3.7858    6.6264 H   0  0  0  0  0  0  0  0  0  0  0  0
    6.1835   -6.0099    5.7598 H   0  0  0  0  0  0  0  0  0  0  0  0
    6.0613   -5.6358    3.3705 H   0  0  0  0  0  0  0  0  0  0  0  0
    7.7762   -5.8838    3.7647 H   0  0  0  0  0  0  0  0  0  0  0  0
    7.4146   -3.9373    2.1667 H   0  0  0  0  0  0  0  0  0  0  0  0
    8.2002   -3.4435    3.6785 H   0  0  0  0  0  0  0  0  0  0  0  0
    1.8142   -2.4125    0.2999 H   0  0  0  0  0  0  0  0  0  0  0  0
    3.3012   -2.8628    1.1615 H   0  0  0  0  0  0  0  0  0  0  0  0
    3.3048   -2.7679   -1.5251 H   0  0  0  0  0  0  0  0  0  0  0  0
    4.6896   -2.0378   -0.6652 H   0  0  0  0  0  0  0  0  0  0  0  0
    1.2598    0.2013   -0.0482 H   0  0  0  0  0  0  0  0  0  0  0  0
    2.6446    1.2871    0.2279 H   0  0  0  0  0  0  0  0  0  0  0  0
  1  2  1  0
  1 21  1  0
  1 22  1  0
  1 23  1  0
  2  3  1  0
  4  2  1  1
  3 24  1  0
  3 25  1  0
  3 26  1  0
  4  5  1  0
  4 17  1  0
  4 20  1  0
  5  6  1  0
  5 27  1  0
  5 28  1  0
  6  7  1  0
  6 29  1  0
  7  8  2  0
  7  9  1  0
  9 10  1  0
  9 16  1  0
 10 11  1  0
 10 30  1  0
 10 31  1  0
 11 12  1  0
 11 32  1  0
 11 33  1  0
 12 13  1  0
 12 15  1  0
 12 34  1  1
 13 14  3  0
 15 16  1  0
 15 35  1  0
 15 36  1  0
 16 37  1  0
 16 38  1  0
 17 18  1  0
 17 39  1  0
 17 40  1  0
 18 19  1  0
 18 41  1  0
 18 42  1  0
 19 20  1  0
 20 43  1  0
 20 44  1  0
M  END

