
     RDKit          3D

 58 64  0  0  0  0  0  0  0  0999 V2000
    0.5578    0.0385    1.0111 O   0  0  0  0  0  0  0  0  0  0  0  0
    1.7217    0.2913    0.7461 C   0  0  0  0  0  0  0  0  0  0  0  0
    2.0735    0.8501   -0.6057 C   0  0  0  0  0  0  0  0  0  0  0  0
    1.0882    1.5926   -1.2812 C   0  0  0  0  0  0  0  0  0  0  0  0
    1.3298    2.0933   -2.5593 C   0  0  0  0  0  0  0  0  0  0  0  0
    2.5511    1.8350   -3.1937 C   0  0  0  0  0  0  0  0  0  0  0  0
    3.5267    1.0743   -2.5434 C   0  0  0  0  0  0  0  0  0  0  0  0
    3.2934    0.5887   -1.2536 C   0  0  0  0  0  0  0  0  0  0  0  0
    2.7902    0.0448    1.7731 C   0  0  0  0  0  0  0  0  0  0  0  0
    2.5275   -0.9050    2.7770 C   0  0  0  0  0  0  0  0  0  0  0  0
    3.4424   -1.1451    3.7965 C   0  0  0  0  0  0  0  0  0  0  0  0
    4.6504   -0.4254    3.8453 C   0  0  0  0  0  0  0  0  0  0  0  0
    5.5871   -0.6611    4.8758 N   0  0  0  0  0  0  0  0  0  0  0  0
    6.1100   -1.9069    5.2553 C   0  0  0  0  0  0  0  0  0  0  0  0
    5.8258   -3.1811    4.7482 C   0  0  0  0  0  0  0  0  0  0  0  0
    6.5183   -4.2723    5.2726 C   0  0  0  0  0  0  0  0  0  0  0  0
    7.4883   -4.1076    6.2798 C   0  0  0  0  0  0  0  0  0  0  0  0
    7.7930   -2.8435    6.7770 C   0  0  0  0  0  0  0  0  0  0  0  0
    7.1092   -1.7231    6.2700 C   0  0  0  0  0  0  0  0  0  0  0  0
    7.1563   -0.3056    6.4831 C   0  0  0  0  0  0  0  0  0  0  0  0
    6.2504    0.3092    5.6303 C   0  0  0  0  0  0  0  0  0  0  0  0
    6.2905    1.7251    5.8568 C   0  0  0  0  0  0  0  0  0  0  0  0
    5.6041    2.8530    5.3673 C   0  0  0  0  0  0  0  0  0  0  0  0
    5.9120    4.1111    5.8763 C   0  0  0  0  0  0  0  0  0  0  0  0
    6.8898    4.2671    6.8784 C   0  0  0  0  0  0  0  0  0  0  0  0
    7.5826    3.1706    7.3892 C   0  0  0  0  0  0  0  0  0  0  0  0
    7.2900    1.9012    6.8743 C   0  0  0  0  0  0  0  0  0  0  0  0
    7.8136    0.6570    7.2433 N   0  0  0  0  0  0  0  0  0  0  0  0
    8.7676    0.4162    8.2665 C   0  0  0  0  0  0  0  0  0  0  0  0
    8.4711   -0.4768    9.3079 C   0  0  0  0  0  0  0  0  0  0  0  0
    9.4149   -0.7221   10.3078 C   0  0  0  0  0  0  0  0  0  0  0  0
   10.6507   -0.0677   10.2896 C   0  0  0  0  0  0  0  0  0  0  0  0
   10.9427    0.8281    9.2565 C   0  0  0  0  0  0  0  0  0  0  0  0
   10.0121    1.0645    8.2420 C   0  0  0  0  0  0  0  0  0  0  0  0
    4.9114    0.5424    2.8618 C   0  0  0  0  0  0  0  0  0  0  0  0
    3.9902    0.7740    1.8405 C   0  0  0  0  0  0  0  0  0  0  0  0
    0.1326    1.7623   -0.7811 H   0  0  0  0  0  0  0  0  0  0  0  0
    0.5622    2.6814   -3.0688 H   0  0  0  0  0  0  0  0  0  0  0  0
    2.7387    2.2212   -4.1989 H   0  0  0  0  0  0  0  0  0  0  0  0
    4.4732    0.8536   -3.0434 H   0  0  0  0  0  0  0  0  0  0  0  0
    4.0545   -0.0205   -0.7625 H   0  0  0  0  0  0  0  0  0  0  0  0
    1.5752   -1.4380    2.7489 H   0  0  0  0  0  0  0  0  0  0  0  0
    3.2162   -1.8706    4.5794 H   0  0  0  0  0  0  0  0  0  0  0  0
    5.0898   -3.3225    3.9559 H   0  0  0  0  0  0  0  0  0  0  0  0
    6.3046   -5.2725    4.8877 H   0  0  0  0  0  0  0  0  0  0  0  0
    8.0149   -4.9824    6.6688 H   0  0  0  0  0  0  0  0  0  0  0  0
    8.5608   -2.7206    7.5426 H   0  0  0  0  0  0  0  0  0  0  0  0
    4.8293    2.7420    4.6072 H   0  0  0  0  0  0  0  0  0  0  0  0
    5.3813    4.9893    5.5006 H   0  0  0  0  0  0  0  0  0  0  0  0
    7.1068    5.2641    7.2696 H   0  0  0  0  0  0  0  0  0  0  0  0
    8.3256    3.2990    8.1776 H   0  0  0  0  0  0  0  0  0  0  0  0
    7.4966   -0.9686    9.3310 H   0  0  0  0  0  0  0  0  0  0  0  0
    9.1759   -1.4203   11.1141 H   0  0  0  0  0  0  0  0  0  0  0  0
   11.3840   -0.2560   11.0774 H   0  0  0  0  0  0  0  0  0  0  0  0
   11.9092    1.3376    9.2297 H   0  0  0  0  0  0  0  0  0  0  0  0
   10.2492    1.7407    7.4185 H   0  0  0  0  0  0  0  0  0  0  0  0
    5.8457    1.1051    2.8970 H   0  0  0  0  0  0  0  0  0  0  0  0
    4.2078    1.5420    1.0964 H   0  0  0  0  0  0  0  0  0  0  0  0
  1  2  2  0
  2  3  1  0
  2  9  1  0
  3  4  2  0
  3  8  1  0
  4  5  1  0
  4 37  1  0
  5  6  2  0
  5 38  1  0
  6  7  1  0
  6 39  1  0
  7  8  2  0
  7 40  1  0
  8 41  1  0
  9 10  2  0
  9 36  1  0
 10 11  1  0
 10 42  1  0
 11 12  2  0
 11 43  1  0
 12 13  1  0
 12 35  1  0
 13 14  1  0
 13 21  1  0
 14 15  2  0
 14 19  1  0
 15 16  1  0
 15 44  1  0
 16 17  2  0
 16 45  1  0
 17 18  1  0
 17 46  1  0
 18 19  2  0
 18 47  1  0
 19 20  1  0
 20 21  2  0
 20 28  1  0
 21 22  1  0
 22 23  2  0
 22 27  1  0
 23 24  1  0
 23 48  1  0
 24 25  2  0
 24 49  1  0
 25 26  1  0
 25 50  1  0
 26 27  2  0
 26 51  1  0
 27 28  1  0
 28 29  1  0
 29 30  2  0
 29 34  1  0
 30 31  1  0
 30 52  1  0
 31 32  2  0
 31 53  1  0
 32 33  1  0
 32 54  1  0
 33 34  2  0
 33 55  1  0
 34 56  1  0
 35 36  2  0
 35 57  1  0
 36 58  1  0
M  END

