
     RDKit          3D

 50 52  0  0  0  0  0  0  0  0999 V2000
    2.8115   -3.2490    0.5552 C   0  0  0  0  0  0  0  0  0  0  0  0
    3.4605   -1.9411    0.9928 C   0  0  0  0  0  0  0  0  0  0  0  0
    5.0325   -1.6756    0.0539 S   0  0  0  0  0  0  0  0  0  0  0  0
    5.5633   -0.0901    0.7178 C   0  0  0  0  0  0  0  0  0  0  0  0
    5.9875   -0.0128    2.0528 C   0  0  0  0  0  0  0  0  0  0  0  0
    6.3975    1.1978    2.6116 C   0  0  0  0  0  0  0  0  0  0  0  0
    6.3975    2.3431    1.8120 C   0  0  0  0  0  0  0  0  0  0  0  0
    6.9043    3.8714    2.4916 Cl  0  0  0  0  0  0  0  0  0  0  0  0
    6.0012    2.2810    0.4743 C   0  0  0  0  0  0  0  0  0  0  0  0
    5.5876    1.0672   -0.0915 C   0  0  0  0  0  0  0  0  0  0  0  0
    5.1752    1.0383   -1.5568 C   0  0  0  0  0  0  0  0  0  0  0  0
    3.7582    0.8051   -1.7684 N   0  0  0  0  0  0  0  0  0  0  0  0
    2.8607    1.8346   -1.7855 C   0  0  0  0  0  0  0  0  0  0  0  0
    3.2068    3.0048   -1.6948 O   0  0  0  0  0  0  0  0  0  0  0  0
    1.4057    1.4464   -1.9190 C   0  0  0  0  0  0  0  0  0  0  0  0
    0.9879    0.1719   -2.3405 C   0  0  0  0  0  0  0  0  0  0  0  0
   -0.3810   -0.0703   -2.4162 C   0  0  0  0  0  0  0  0  0  0  0  0
   -0.9864   -1.8014   -2.9647 Br  0  0  0  0  0  0  0  0  0  0  0  0
   -1.3313    0.8992   -2.0960 C   0  0  0  0  0  0  0  0  0  0  0  0
   -0.9207    2.1973   -1.7068 C   0  0  0  0  0  0  0  0  0  0  0  0
   -1.8450    3.2076   -1.4406 N   0  0  0  0  0  0  0  0  0  0  0  0
   -1.5605    4.1919   -0.3932 C   0  0  0  0  0  0  0  0  0  0  0  0
   -2.3656    5.4711   -0.6013 C   0  0  0  0  0  0  0  0  0  0  0  0
   -3.7801    5.1439   -0.6783 N   0  0  0  0  0  0  0  0  0  0  0  0
   -4.0434    4.2588   -1.7997 C   0  0  0  0  0  0  0  0  0  0  0  0
   -3.2685    2.9519   -1.6286 C   0  0  0  0  0  0  0  0  0  0  0  0
    0.4700    2.4367   -1.6213 C   0  0  0  0  0  0  0  0  0  0  0  0
    1.8888   -3.4220    1.1317 H   0  0  0  0  0  0  0  0  0  0  0  0
    3.4824   -4.1065    0.7223 H   0  0  0  0  0  0  0  0  0  0  0  0
    2.5403   -3.2306   -0.5122 H   0  0  0  0  0  0  0  0  0  0  0  0
    3.6978   -1.9595    2.0673 H   0  0  0  0  0  0  0  0  0  0  0  0
    2.7963   -1.0831    0.8068 H   0  0  0  0  0  0  0  0  0  0  0  0
    6.0030   -0.9190    2.6630 H   0  0  0  0  0  0  0  0  0  0  0  0
    6.7223    1.2547    3.6517 H   0  0  0  0  0  0  0  0  0  0  0  0
    5.9974    3.1884   -0.1316 H   0  0  0  0  0  0  0  0  0  0  0  0
    5.7330    0.2504   -2.0850 H   0  0  0  0  0  0  0  0  0  0  0  0
    5.4228    2.0018   -2.0198 H   0  0  0  0  0  0  0  0  0  0  0  0
    3.4385   -0.1499   -1.6606 H   0  0  0  0  0  0  0  0  0  0  0  0
    1.6935   -0.6042   -2.6362 H   0  0  0  0  0  0  0  0  0  0  0  0
   -2.3840    0.6317   -2.1446 H   0  0  0  0  0  0  0  0  0  0  0  0
   -0.4930    4.4384   -0.3905 H   0  0  0  0  0  0  0  0  0  0  0  0
   -1.8113    3.7699    0.6024 H   0  0  0  0  0  0  0  0  0  0  0  0
   -1.9881    5.9802   -1.5173 H   0  0  0  0  0  0  0  0  0  0  0  0
   -2.1881    6.1449    0.2522 H   0  0  0  0  0  0  0  0  0  0  0  0
   -4.3476    5.9867   -0.7387 H   0  0  0  0  0  0  0  0  0  0  0  0
   -3.7562    4.7056   -2.7789 H   0  0  0  0  0  0  0  0  0  0  0  0
   -5.1199    4.0273   -1.8435 H   0  0  0  0  0  0  0  0  0  0  0  0
   -3.4102    2.3479   -2.5354 H   0  0  0  0  0  0  0  0  0  0  0  0
   -3.6922    2.3850   -0.7725 H   0  0  0  0  0  0  0  0  0  0  0  0
    0.8691    3.4113   -1.3455 H   0  0  0  0  0  0  0  0  0  0  0  0
  1  2  1  0
  1 28  1  0
  1 29  1  0
  1 30  1  0
  2  3  1  0
  2 31  1  0
  2 32  1  0
  3  4  1  0
  4  5  2  0
  4 10  1  0
  5  6  1  0
  5 33  1  0
  6  7  2  0
  6 34  1  0
  7  8  1  0
  7  9  1  0
  9 10  2  0
  9 35  1  0
 10 11  1  0
 11 12  1  0
 11 36  1  0
 11 37  1  0
 12 13  1  0
 12 38  1  0
 13 14  2  0
 13 15  1  0
 15 16  2  0
 15 27  1  0
 16 17  1  0
 16 39  1  0
 17 18  1  0
 17 19  2  0
 19 20  1  0
 19 40  1  0
 20 21  1  0
 20 27  2  0
 21 22  1  0
 21 26  1  0
 22 23  1  0
 22 41  1  0
 22 42  1  0
 23 24  1  0
 23 43  1  0
 23 44  1  0
 24 25  1  0
 24 45  1  0
 25 26  1  0
 25 46  1  0
 25 47  1  0
 26 48  1  0
 26 49  1  0
 27 50  1  0
M  END

