
     RDKit          3D

 23 23  0  0  0  0  0  0  0  0999 V2000
    0.9157   -0.0160    0.0043 C   0  0  0  0  0  0  0  0  0  0  0  0
    2.4189   -0.0368    0.0270 C   0  0  0  0  0  0  0  0  0  0  0  0
    3.0798    1.1141    0.0514 N   0  0  0  0  0  0  0  0  0  0  0  0
    4.4170    1.1052    0.0669 C   0  0  0  0  0  0  0  0  0  0  0  0
    5.1882   -0.0566    0.0603 C   0  0  0  0  0  0  0  0  0  0  0  0
    6.7006    0.0392    0.0559 C   0  0  0  0  0  0  0  0  0  0  0  0
    7.2885   -0.5638    1.2550 N   0  0  0  0  0  0  0  0  0  0  0  0
    4.5055   -1.2957    0.0496 C   0  0  0  0  0  0  0  0  0  0  0  0
    5.3126   -2.5686   -0.0203 C   0  0  1  0  0  0  0  0  0  0  0  0
    4.5857   -3.6528    0.4436 F   0  0  0  0  0  0  0  0  0  0  0  0
    5.6469   -2.8586   -1.3111 F   0  0  0  0  0  0  0  0  0  0  0  0
    3.1014   -1.2839    0.0187 C   0  0  0  0  0  0  0  0  0  0  0  0
    2.3245   -2.3872   -0.0145 O   0  0  0  0  0  0  0  0  0  0  0  0
    0.5692    1.0250    0.0255 H   0  0  0  0  0  0  0  0  0  0  0  0
    0.4977   -0.5618    0.8661 H   0  0  0  0  0  0  0  0  0  0  0  0
    0.5246   -0.5145   -0.8980 H   0  0  0  0  0  0  0  0  0  0  0  0
    4.9122    2.0838    0.0804 H   0  0  0  0  0  0  0  0  0  0  0  0
    6.9716    1.1036   -0.0936 H   0  0  0  0  0  0  0  0  0  0  0  0
    7.0971   -0.5030   -0.8198 H   0  0  0  0  0  0  0  0  0  0  0  0
    6.9979   -0.0523    2.0890 H   0  0  0  0  0  0  0  0  0  0  0  0
    8.3069   -0.5140    1.2174 H   0  0  0  0  0  0  0  0  0  0  0  0
    6.2309   -2.5029    0.5798 H   0  0  0  0  0  0  0  0  0  0  0  0
    2.8775   -3.1776    0.0871 H   0  0  0  0  0  0  0  0  0  0  0  0
  1  2  1  0
  1 14  1  0
  1 15  1  0
  1 16  1  0
  2  3  2  0
  2 12  1  0
  3  4  1  0
  4  5  2  0
  4 17  1  0
  5  6  1  0
  5  8  1  0
  6  7  1  0
  6 18  1  0
  6 19  1  0
  7 20  1  0
  7 21  1  0
  8  9  1  0
  8 12  2  0
  9 10  1  0
  9 11  1  0
  9 22  1  1
 12 13  1  0
 13 23  1  0
M  END

