
     RDKit          3D

 49 51  0  0  0  0  0  0  0  0999 V2000
    1.1923    1.1646   -2.6049 C   0  0  0  0  0  0  0  0  0  0  0  0
    2.5733    0.8073   -2.1242 C   0  0  0  0  0  0  0  0  0  0  0  0
    3.3318    1.6256   -1.2776 C   0  0  0  0  0  0  0  0  0  0  0  0
    4.6049    1.2554   -0.8423 C   0  0  0  0  0  0  0  0  0  0  0  0
    5.1755    0.0374   -1.2507 C   0  0  0  0  0  0  0  0  0  0  0  0
    6.4894   -0.2415   -0.8238 N   0  0  0  0  0  0  0  0  0  0  0  0
    7.1440   -1.4400   -0.6247 C   0  0  0  0  0  0  0  0  0  0  0  0
    6.3751   -2.9265   -0.5794 S   0  0  0  0  0  0  0  0  0  0  0  0
    8.5004   -1.2864   -0.4221 N   0  0  0  0  0  0  0  0  0  0  0  0
    9.3232   -2.3809    0.0945 C   0  0  0  0  0  0  0  0  0  0  0  0
   10.2542   -2.9250   -0.9909 C   0  0  0  0  0  0  0  0  0  0  0  0
   11.0567   -1.8512   -1.5980 N   0  0  0  0  0  0  0  0  0  0  0  0
   12.5701   -1.5349   -0.9133 S   0  0  1  0  0  0  0  0  0  0  0  0
   12.9637   -0.2025   -1.3801 O   0  0  0  0  0  0  0  0  0  0  0  0
   12.5616   -1.8652    0.5173 O   0  0  0  0  0  0  0  0  0  0  0  0
   13.6302   -2.7440   -1.7205 C   0  0  0  0  0  0  0  0  0  0  0  0
   13.9438   -2.5825   -3.0757 C   0  0  0  0  0  0  0  0  0  0  0  0
   14.7874   -3.5075   -3.6870 C   0  0  0  0  0  0  0  0  0  0  0  0
   15.3153   -4.5762   -2.9516 C   0  0  0  0  0  0  0  0  0  0  0  0
   15.0021   -4.7160   -1.5978 C   0  0  0  0  0  0  0  0  0  0  0  0
   15.5591   -5.8583   -0.7798 C   0  0  1  0  0  0  0  0  0  0  0  0
   16.3843   -6.6370   -1.4966 F   0  0  0  0  0  0  0  0  0  0  0  0
   16.2464   -5.4079    0.2835 F   0  0  0  0  0  0  0  0  0  0  0  0
   14.5739   -6.6419   -0.3055 F   0  0  0  0  0  0  0  0  0  0  0  0
   14.1565   -3.7912   -0.9689 C   0  0  0  0  0  0  0  0  0  0  0  0
   10.2577   -0.7142   -2.0585 C   0  0  0  0  0  0  0  0  0  0  0  0
    9.3044   -0.1903   -0.9700 C   0  0  0  0  0  0  0  0  0  0  0  0
    4.4425   -0.7985   -2.1072 C   0  0  0  0  0  0  0  0  0  0  0  0
    3.1763   -0.3962   -2.5117 C   0  0  0  0  0  0  0  0  0  0  0  0
    2.4880   -1.2106   -3.3328 F   0  0  0  0  0  0  0  0  0  0  0  0
    0.8771    2.1404   -2.2081 H   0  0  0  0  0  0  0  0  0  0  0  0
    0.4507    0.4112   -2.2920 H   0  0  0  0  0  0  0  0  0  0  0  0
    1.1482    1.2110   -3.7056 H   0  0  0  0  0  0  0  0  0  0  0  0
    2.9100    2.5771   -0.9428 H   0  0  0  0  0  0  0  0  0  0  0  0
    5.1611    1.9174   -0.1725 H   0  0  0  0  0  0  0  0  0  0  0  0
    6.9589    0.5699   -0.4374 H   0  0  0  0  0  0  0  0  0  0  0  0
    8.6562   -3.1711    0.4595 H   0  0  0  0  0  0  0  0  0  0  0  0
    9.9342   -1.9960    0.9285 H   0  0  0  0  0  0  0  0  0  0  0  0
    9.6577   -3.3941   -1.7911 H   0  0  0  0  0  0  0  0  0  0  0  0
   10.9195   -3.6936   -0.5738 H   0  0  0  0  0  0  0  0  0  0  0  0
   13.5363   -1.7382   -3.6346 H   0  0  0  0  0  0  0  0  0  0  0  0
   15.0431   -3.3968   -4.7431 H   0  0  0  0  0  0  0  0  0  0  0  0
   15.9761   -5.3001   -3.4303 H   0  0  0  0  0  0  0  0  0  0  0  0
   13.9137   -3.8704    0.0922 H   0  0  0  0  0  0  0  0  0  0  0  0
    9.6668   -1.0554   -2.9262 H   0  0  0  0  0  0  0  0  0  0  0  0
   10.9305    0.0871   -2.3898 H   0  0  0  0  0  0  0  0  0  0  0  0
    8.6625    0.5791   -1.4161 H   0  0  0  0  0  0  0  0  0  0  0  0
    9.8938    0.2801   -0.1622 H   0  0  0  0  0  0  0  0  0  0  0  0
    4.8338   -1.7546   -2.4462 H   0  0  0  0  0  0  0  0  0  0  0  0
  1  2  1  0
  1 31  1  0
  1 32  1  0
  1 33  1  0
  2  3  2  0
  2 29  1  0
  3  4  1  0
  3 34  1  0
  4  5  2  0
  4 35  1  0
  5  6  1  0
  5 28  1  0
  6  7  1  0
  6 36  1  0
  7  8  2  0
  7  9  1  0
  9 10  1  0
  9 27  1  0
 10 11  1  0
 10 37  1  0
 10 38  1  0
 11 12  1  0
 11 39  1  0
 11 40  1  0
 12 13  1  0
 12 26  1  0
 13 14  2  0
 13 15  2  0
 13 16  1  6
 16 17  2  0
 16 25  1  0
 17 18  1  0
 17 41  1  0
 18 19  2  0
 18 42  1  0
 19 20  1  0
 19 43  1  0
 20 21  1  0
 20 25  2  0
 21 22  1  6
 21 23  1  0
 21 24  1  0
 25 44  1  0
 26 27  1  0
 26 45  1  0
 26 46  1  0
 27 47  1  0
 27 48  1  0
 28 29  2  0
 28 49  1  0
 29 30  1  0
M  END

