
     RDKit          3D

 60 63  0  0  0  0  0  0  0  0999 V2000
    2.1504    0.0625   -1.4563 O   0  0  0  0  0  0  0  0  0  0  0  0
    1.7997    0.1478   -0.2889 C   0  0  0  0  0  0  0  0  0  0  0  0
    0.7151   -0.6228    0.3525 C   0  0  0  0  0  0  0  0  0  0  0  0
   -0.0637   -1.5780   -0.2129 C   0  0  0  0  0  0  0  0  0  0  0  0
    0.0137   -2.0472   -1.6454 C   0  0  0  0  0  0  0  0  0  0  0  0
    0.1668   -3.5806   -1.7257 C   0  0  0  0  0  0  0  0  0  0  0  0
   -0.9145   -4.3111   -0.9222 C   0  0  0  0  0  0  0  0  0  0  0  0
   -0.9487   -3.8252    0.5311 C   0  0  0  0  0  0  0  0  0  0  0  0
   -1.1099   -2.2939    0.6100 C   0  0  0  0  0  0  0  0  0  0  0  0
    2.6044    1.0662    0.6368 C   0  0  0  0  0  0  0  0  0  0  0  0
    2.0962    2.0895    1.2454 N   0  0  0  0  0  0  0  0  0  0  0  0
    0.7627    2.2994    0.9756 N   0  0  0  0  0  0  0  0  0  0  0  0
    0.2743    3.3643    1.5244 C   0  0  0  0  0  0  0  0  0  0  0  0
    1.1075    4.3112    2.3957 C   0  0  0  0  0  0  0  0  0  0  0  0
    0.7831    4.4342    3.5669 O   0  0  0  0  0  0  0  0  0  0  0  0
    2.1870    5.0448    1.7061 C   0  0  0  0  0  0  0  0  0  0  0  0
    2.9987    5.9985    2.2256 C   0  0  0  0  0  0  0  0  0  0  0  0
    2.9899    6.4816    3.6553 C   0  0  0  0  0  0  0  0  0  0  0  0
    4.3917    6.3614    4.2903 C   0  0  0  0  0  0  0  0  0  0  0  0
    5.4693    7.0445    3.4413 C   0  0  0  0  0  0  0  0  0  0  0  0
    5.4565    6.5221    2.0004 C   0  0  0  0  0  0  0  0  0  0  0  0
    4.0563    6.6513    1.3666 C   0  0  0  0  0  0  0  0  0  0  0  0
   -1.1474    3.6798    1.3287 C   0  0  0  0  0  0  0  0  0  0  0  0
   -1.8883    4.6834    2.0474 C   0  0  0  0  0  0  0  0  0  0  0  0
   -3.1941    4.7644    1.6474 C   0  0  0  0  0  0  0  0  0  0  0  0
   -3.5475    3.6273    0.3866 S   0  0  0  0  0  0  0  0  0  0  0  0
   -1.9377    3.0304    0.3953 C   0  0  0  0  0  0  0  0  0  0  0  0
    4.0289    0.7747    0.8305 C   0  0  0  0  0  0  0  0  0  0  0  0
    4.8365    1.4203    1.8334 C   0  0  0  0  0  0  0  0  0  0  0  0
    6.1319    0.9868    1.8290 C   0  0  0  0  0  0  0  0  0  0  0  0
    6.4035   -0.2094    0.5991 S   0  0  0  0  0  0  0  0  0  0  0  0
    4.7615   -0.1361    0.0892 C   0  0  0  0  0  0  0  0  0  0  0  0
    0.5451   -0.3804    1.4046 H   0  0  0  0  0  0  0  0  0  0  0  0
    0.8192   -1.5343   -2.1810 H   0  0  0  0  0  0  0  0  0  0  0  0
   -0.9389   -1.7667   -2.1363 H   0  0  0  0  0  0  0  0  0  0  0  0
    1.1629   -3.8607   -1.3384 H   0  0  0  0  0  0  0  0  0  0  0  0
    0.1442   -3.8945   -2.7823 H   0  0  0  0  0  0  0  0  0  0  0  0
   -0.7474   -5.4009   -0.9563 H   0  0  0  0  0  0  0  0  0  0  0  0
   -1.9008   -4.1331   -1.3898 H   0  0  0  0  0  0  0  0  0  0  0  0
   -0.0094   -4.1127    1.0367 H   0  0  0  0  0  0  0  0  0  0  0  0
   -1.7667   -4.3127    1.0869 H   0  0  0  0  0  0  0  0  0  0  0  0
   -1.0882   -1.9493    1.6552 H   0  0  0  0  0  0  0  0  0  0  0  0
   -2.1055   -2.0277    0.2046 H   0  0  0  0  0  0  0  0  0  0  0  0
    2.3215    4.7755    0.6551 H   0  0  0  0  0  0  0  0  0  0  0  0
    2.2391    5.9450    4.2444 H   0  0  0  0  0  0  0  0  0  0  0  0
    2.7052    7.5520    3.6428 H   0  0  0  0  0  0  0  0  0  0  0  0
    4.6392    5.2911    4.4068 H   0  0  0  0  0  0  0  0  0  0  0  0
    4.3693    6.7881    5.3066 H   0  0  0  0  0  0  0  0  0  0  0  0
    6.4648    6.8947    3.8924 H   0  0  0  0  0  0  0  0  0  0  0  0
    5.2925    8.1363    3.4351 H   0  0  0  0  0  0  0  0  0  0  0  0
    5.7551    5.4586    1.9905 H   0  0  0  0  0  0  0  0  0  0  0  0
    6.1936    7.0615    1.3826 H   0  0  0  0  0  0  0  0  0  0  0  0
    4.0470    6.2329    0.3486 H   0  0  0  0  0  0  0  0  0  0  0  0
    3.8125    7.7277    1.2770 H   0  0  0  0  0  0  0  0  0  0  0  0
   -1.4616    5.2904    2.8446 H   0  0  0  0  0  0  0  0  0  0  0  0
   -3.9741    5.4226    2.0273 H   0  0  0  0  0  0  0  0  0  0  0  0
   -1.6208    2.2388   -0.2807 H   0  0  0  0  0  0  0  0  0  0  0  0
    4.4345    2.1661    2.5181 H   0  0  0  0  0  0  0  0  0  0  0  0
    6.9478    1.2945    2.4815 H   0  0  0  0  0  0  0  0  0  0  0  0
    4.4144   -0.7314   -0.7524 H   0  0  0  0  0  0  0  0  0  0  0  0
  1  2  2  0
  2  3  1  0
  2 10  1  0
  3  4  2  0
  3 33  1  0
  4  5  1  0
  4  9  1  0
  5  6  1  0
  5 34  1  0
  5 35  1  0
  6  7  1  0
  6 36  1  0
  6 37  1  0
  7  8  1  0
  7 38  1  0
  7 39  1  0
  8  9  1  0
  8 40  1  0
  8 41  1  0
  9 42  1  0
  9 43  1  0
 10 11  2  0
 10 28  1  0
 11 12  1  0
 12 13  2  0
 13 14  1  0
 13 23  1  0
 14 15  2  0
 14 16  1  0
 16 17  2  0
 16 44  1  0
 17 18  1  0
 17 22  1  0
 18 19  1  0
 18 45  1  0
 18 46  1  0
 19 20  1  0
 19 47  1  0
 19 48  1  0
 20 21  1  0
 20 49  1  0
 20 50  1  0
 21 22  1  0
 21 51  1  0
 21 52  1  0
 22 53  1  0
 22 54  1  0
 23 24  1  0
 23 27  2  0
 24 25  2  0
 24 55  1  0
 25 26  1  0
 25 56  1  0
 26 27  1  0
 27 57  1  0
 28 29  1  0
 28 32  2  0
 29 30  2  0
 29 58  1  0
 30 31  1  0
 30 59  1  0
 31 32  1  0
 32 60  1  0
M  END

