
     RDKit          3D

 34 35  0  0  0  0  0  0  0  0999 V2000
    0.9841   -0.2242    0.5752 C   0  0  0  0  0  0  0  0  0  0  0  0
    2.4785   -0.0909    0.2901 C   0  0  1  0  0  0  0  0  0  0  0  0
    2.9923    0.2928    1.1853 H   0  0  0  0  0  0  0  0  0  0  0  0
    3.1217   -1.4332   -0.0667 C   0  0  0  0  0  0  0  0  0  0  0  0
    4.5373   -1.3240   -0.1620 O   0  0  0  0  0  0  0  0  0  0  0  0
    5.1348   -1.1016   -1.3730 C   0  0  0  0  0  0  0  0  0  0  0  0
    5.8602   -2.1508   -1.9356 C   0  0  0  0  0  0  0  0  0  0  0  0
    6.5305   -1.9367   -3.1425 C   0  0  0  0  0  0  0  0  0  0  0  0
    6.4864   -0.7066   -3.7850 C   0  0  0  0  0  0  0  0  0  0  0  0
    5.7765    0.3912   -3.2338 C   0  0  0  0  0  0  0  0  0  0  0  0
    5.7853    1.6138   -3.8477 N   0  0  0  0  0  0  0  0  0  0  0  0
    6.3999    1.8989   -5.1279 C   0  0  0  0  0  0  0  0  0  0  0  0
    6.5361    3.4091   -5.3082 C   0  0  0  0  0  0  0  0  0  0  0  0
    7.4137    3.9879   -4.3749 O   0  0  0  0  0  0  0  0  0  0  0  0
    5.0700    0.1584   -2.0085 C   0  0  0  0  0  0  0  0  0  0  0  0
    4.2107    1.4787   -1.1315 S   0  0  2  0  0  0  0  0  0  0  0  0
    3.9625    2.5628   -2.1004 O   0  0  0  0  0  0  0  0  0  0  0  0
    4.8840    1.7527    0.1326 O   0  0  0  0  0  0  0  0  0  0  0  0
    2.6806    0.9127   -0.7579 N   0  0  0  0  0  0  0  0  0  0  0  0
    0.8073   -0.9179    1.4112 H   0  0  0  0  0  0  0  0  0  0  0  0
    0.4400   -0.6113   -0.3036 H   0  0  0  0  0  0  0  0  0  0  0  0
    0.5564    0.7540    0.8381 H   0  0  0  0  0  0  0  0  0  0  0  0
    2.6985   -1.8303   -1.0086 H   0  0  0  0  0  0  0  0  0  0  0  0
    2.9234   -2.1668    0.7311 H   0  0  0  0  0  0  0  0  0  0  0  0
    5.8911   -3.1071   -1.4124 H   0  0  0  0  0  0  0  0  0  0  0  0
    7.0967   -2.7534   -3.5979 H   0  0  0  0  0  0  0  0  0  0  0  0
    7.0136   -0.5790   -4.7292 H   0  0  0  0  0  0  0  0  0  0  0  0
    5.0865    2.2714   -3.4984 H   0  0  0  0  0  0  0  0  0  0  0  0
    5.8251    1.4694   -5.9752 H   0  0  0  0  0  0  0  0  0  0  0  0
    7.4109    1.4612   -5.1627 H   0  0  0  0  0  0  0  0  0  0  0  0
    5.5272    3.8749   -5.2739 H   0  0  0  0  0  0  0  0  0  0  0  0
    6.9461    3.6138   -6.3100 H   0  0  0  0  0  0  0  0  0  0  0  0
    7.1164    3.7261   -3.4918 H   0  0  0  0  0  0  0  0  0  0  0  0
    2.1251    0.7950   -1.6052 H   0  0  0  0  0  0  0  0  0  0  0  0
  1  2  1  0
  1 20  1  0
  1 21  1  0
  1 22  1  0
  2  3  1  1
  2  4  1  0
  2 19  1  0
  4  5  1  0
  4 23  1  0
  4 24  1  0
  5  6  1  0
  6  7  2  0
  6 15  1  0
  7  8  1  0
  7 25  1  0
  8  9  2  0
  8 26  1  0
  9 10  1  0
  9 27  1  0
 10 11  1  0
 10 15  2  0
 11 12  1  0
 11 28  1  0
 12 13  1  0
 12 29  1  0
 12 30  1  0
 13 14  1  0
 13 31  1  0
 13 32  1  0
 14 33  1  0
 15 16  1  0
 16 17  2  0
 16 18  2  0
 16 19  1  1
 19 34  1  0
M  END

