
     RDKit          3D

 70 69  0  0  0  0  0  0  0  0999 V2000
    4.6992   -2.8084   -4.7949 C   0  0  0  0  0  0  0  0  0  0  0  0
    5.4005   -1.7351   -4.0067 C   0  0  0  0  0  0  0  0  0  0  0  0
    6.4429   -1.2091   -4.3081 O   0  0  0  0  0  0  0  0  0  0  0  0
    4.7220   -1.4519   -2.8691 O   0  0  0  0  0  0  0  0  0  0  0  0
    5.3011   -0.5431   -1.9064 C   0  0  1  0  0  0  0  0  0  0  0  0
    5.9776    0.1494   -2.4313 H   0  0  0  0  0  0  0  0  0  0  0  0
    4.1208    0.2108   -1.3006 C   0  0  0  0  0  0  0  0  0  0  0  0
    3.2399   -0.6425   -0.6090 O   0  0  0  0  0  0  0  0  0  0  0  0
    6.0924   -1.3216   -0.8553 C   0  0  0  0  0  0  0  0  0  0  0  0
    7.3972   -1.6830   -1.3176 O   0  0  0  0  0  0  0  0  0  0  0  0
    7.5715   -2.8890   -1.9002 C   0  0  0  0  0  0  0  0  0  0  0  0
    6.6950   -3.7140   -2.0057 O   0  0  0  0  0  0  0  0  0  0  0  0
    8.9819   -3.0319   -2.4228 C   0  0  0  0  0  0  0  0  0  0  0  0
    9.3668   -4.4665   -2.7780 C   0  0  0  0  0  0  0  0  0  0  0  0
   10.7670   -4.5792   -3.3865 C   0  0  0  0  0  0  0  0  0  0  0  0
   11.1650   -6.0135   -3.7480 C   0  0  0  0  0  0  0  0  0  0  0  0
   12.5626   -6.1231   -4.3676 C   0  0  0  0  0  0  0  0  0  0  0  0
   13.0346   -7.5551   -4.6601 C   0  0  0  0  0  0  0  0  0  0  0  0
   12.1964   -8.3581   -5.6800 C   0  0  0  0  0  0  0  0  0  0  0  0
   12.1033   -7.7254   -7.0435 C   0  0  0  0  0  0  0  0  0  0  0  0
   12.6602   -8.1498   -8.1892 C   0  0  0  0  0  0  0  0  0  0  0  0
   13.5251   -9.3601   -8.4142 C   0  0  0  0  0  0  0  0  0  0  0  0
   14.9276   -9.0107   -8.9425 C   0  0  0  0  0  0  0  0  0  0  0  0
   15.7946  -10.2375   -9.2389 C   0  0  0  0  0  0  0  0  0  0  0  0
   17.1929   -9.8955   -9.7636 C   0  0  0  0  0  0  0  0  0  0  0  0
   18.0539  -11.1291  -10.0551 C   0  0  0  0  0  0  0  0  0  0  0  0
   19.4391  -10.8489  -10.6686 C   0  0  1  0  0  0  0  0  0  0  0  0
   20.3514  -10.0454   -9.7318 C   0  0  0  0  0  0  0  0  0  0  0  0
   20.1174  -12.1585  -11.0920 C   0  0  0  0  0  0  0  0  0  0  0  0
    5.0934   -2.8359   -5.8179 H   0  0  0  0  0  0  0  0  0  0  0  0
    3.6110   -2.6546   -4.7980 H   0  0  0  0  0  0  0  0  0  0  0  0
    4.9042   -3.7706   -4.2978 H   0  0  0  0  0  0  0  0  0  0  0  0
    3.6119    0.7687   -2.1116 H   0  0  0  0  0  0  0  0  0  0  0  0
    4.4931    0.9524   -0.5755 H   0  0  0  0  0  0  0  0  0  0  0  0
    2.9488   -1.3184   -1.2379 H   0  0  0  0  0  0  0  0  0  0  0  0
    5.5344   -2.2149   -0.5450 H   0  0  0  0  0  0  0  0  0  0  0  0
    6.2599   -0.6753    0.0183 H   0  0  0  0  0  0  0  0  0  0  0  0
    9.6731   -2.5861   -1.6889 H   0  0  0  0  0  0  0  0  0  0  0  0
    9.0325   -2.3781   -3.3129 H   0  0  0  0  0  0  0  0  0  0  0  0
    8.6175   -4.8740   -3.4769 H   0  0  0  0  0  0  0  0  0  0  0  0
    9.3015   -5.0971   -1.8739 H   0  0  0  0  0  0  0  0  0  0  0  0
   11.5103   -4.1604   -2.6825 H   0  0  0  0  0  0  0  0  0  0  0  0
   10.8242   -3.9454   -4.2911 H   0  0  0  0  0  0  0  0  0  0  0  0
   10.4097   -6.4277   -4.4397 H   0  0  0  0  0  0  0  0  0  0  0  0
   11.1173   -6.6446   -2.8406 H   0  0  0  0  0  0  0  0  0  0  0  0
   13.2912   -5.6543   -3.6819 H   0  0  0  0  0  0  0  0  0  0  0  0
   12.6006   -5.5208   -5.2930 H   0  0  0  0  0  0  0  0  0  0  0  0
   13.0603   -8.1231   -3.7122 H   0  0  0  0  0  0  0  0  0  0  0  0
   14.0768   -7.5149   -5.0217 H   0  0  0  0  0  0  0  0  0  0  0  0
   11.1741   -8.4910   -5.2812 H   0  0  0  0  0  0  0  0  0  0  0  0
   12.6216   -9.3711   -5.7536 H   0  0  0  0  0  0  0  0  0  0  0  0
   11.5081   -6.8054   -7.0959 H   0  0  0  0  0  0  0  0  0  0  0  0
   12.4803   -7.5437   -9.0874 H   0  0  0  0  0  0  0  0  0  0  0  0
   13.0302  -10.0194   -9.1533 H   0  0  0  0  0  0  0  0  0  0  0  0
   13.6205   -9.9555   -7.4918 H   0  0  0  0  0  0  0  0  0  0  0  0
   15.4389   -8.3639   -8.2069 H   0  0  0  0  0  0  0  0  0  0  0  0
   14.8299   -8.4010   -9.8598 H   0  0  0  0  0  0  0  0  0  0  0  0
   15.2756  -10.8820   -9.9728 H   0  0  0  0  0  0  0  0  0  0  0  0
   15.8892  -10.8480   -8.3214 H   0  0  0  0  0  0  0  0  0  0  0  0
   17.6994   -9.2444   -9.0295 H   0  0  0  0  0  0  0  0  0  0  0  0
   17.0977   -9.2918  -10.6857 H   0  0  0  0  0  0  0  0  0  0  0  0
   17.4962  -11.7917  -10.7420 H   0  0  0  0  0  0  0  0  0  0  0  0
   18.1873  -11.7114   -9.1230 H   0  0  0  0  0  0  0  0  0  0  0  0
   19.2792  -10.2441  -11.5823 H   0  0  0  0  0  0  0  0  0  0  0  0
   20.5253  -10.5920   -8.7882 H   0  0  0  0  0  0  0  0  0  0  0  0
   19.9248   -9.0635   -9.4748 H   0  0  0  0  0  0  0  0  0  0  0  0
   21.3349   -9.8649  -10.1956 H   0  0  0  0  0  0  0  0  0  0  0  0
   20.2988  -12.8091  -10.2187 H   0  0  0  0  0  0  0  0  0  0  0  0
   21.0912  -11.9709  -11.5730 H   0  0  0  0  0  0  0  0  0  0  0  0
   19.4947  -12.7249  -11.8036 H   0  0  0  0  0  0  0  0  0  0  0  0
  1  2  1  0
  1 30  1  0
  1 31  1  0
  1 32  1  0
  2  3  2  0
  2  4  1  0
  4  5  1  0
  5  6  1  6
  5  7  1  0
  5  9  1  0
  7  8  1  0
  7 33  1  0
  7 34  1  0
  8 35  1  0
  9 10  1  0
  9 36  1  0
  9 37  1  0
 10 11  1  0
 11 12  2  0
 11 13  1  0
 13 14  1  0
 13 38  1  0
 13 39  1  0
 14 15  1  0
 14 40  1  0
 14 41  1  0
 15 16  1  0
 15 42  1  0
 15 43  1  0
 16 17  1  0
 16 44  1  0
 16 45  1  0
 17 18  1  0
 17 46  1  0
 17 47  1  0
 18 19  1  0
 18 48  1  0
 18 49  1  0
 19 20  1  0
 19 50  1  0
 19 51  1  0
 20 21  2  0
 20 52  1  0
 21 22  1  0
 21 53  1  0
 22 23  1  0
 22 54  1  0
 22 55  1  0
 23 24  1  0
 23 56  1  0
 23 57  1  0
 24 25  1  0
 24 58  1  0
 24 59  1  0
 25 26  1  0
 25 60  1  0
 25 61  1  0
 26 27  1  0
 26 62  1  0
 26 63  1  0
 27 28  1  0
 27 29  1  0
 27 64  1  6
 28 65  1  0
 28 66  1  0
 28 67  1  0
 29 68  1  0
 29 69  1  0
 29 70  1  0
M  END

