
     RDKit          3D

 46 48  0  0  0  0  0  0  0  0999 V2000
    2.2656   -1.4778   -0.3563 C   0  0  0  0  0  0  0  0  0  0  0  0
    3.5865   -0.8578   -0.8082 C   0  0  1  0  0  0  0  0  0  0  0  0
    3.9331   -1.3408   -1.7388 H   0  0  0  0  0  0  0  0  0  0  0  0
    3.4817    0.5498   -1.0022 O   0  0  0  0  0  0  0  0  0  0  0  0
    2.9257    1.0791   -2.1388 C   0  0  0  0  0  0  0  0  0  0  0  0
    2.5354    0.3094   -3.2442 C   0  0  0  0  0  0  0  0  0  0  0  0
    2.0005    0.9322   -4.3764 C   0  0  0  0  0  0  0  0  0  0  0  0
    1.8462    2.3176   -4.4119 C   0  0  0  0  0  0  0  0  0  0  0  0
    2.2315    3.0746   -3.3019 C   0  0  0  0  0  0  0  0  0  0  0  0
    2.7717    2.4839   -2.1534 C   0  0  0  0  0  0  0  0  0  0  0  0
    3.1814    3.3297   -0.9690 C   0  0  0  0  0  0  0  0  0  0  0  0
    4.6178    3.8450   -0.9707 C   0  0  0  0  0  0  0  0  0  0  0  0
    5.6279    3.2686   -1.7537 C   0  0  0  0  0  0  0  0  0  0  0  0
    6.9408    3.7497   -1.6987 C   0  0  0  0  0  0  0  0  0  0  0  0
    7.2662    4.8182   -0.8610 C   0  0  0  0  0  0  0  0  0  0  0  0
    6.2662    5.4052   -0.0787 C   0  0  0  0  0  0  0  0  0  0  0  0
    4.9580    4.9227   -0.1359 C   0  0  0  0  0  0  0  0  0  0  0  0
    4.6927   -1.1549    0.2225 C   0  0  0  0  0  0  0  0  0  0  0  0
    4.9196   -2.3118    0.5316 O   0  0  0  0  0  0  0  0  0  0  0  0
    5.3397   -0.0585    0.7119 N   0  0  0  0  0  0  0  0  0  0  0  0
    6.3674   -0.0167    1.6661 C   0  0  0  0  0  0  0  0  0  0  0  0
    6.9873   -1.1426    2.2345 C   0  0  0  0  0  0  0  0  0  0  0  0
    8.0065   -0.9772    3.1775 C   0  0  0  0  0  0  0  0  0  0  0  0
    8.4258    0.2960    3.5707 C   0  0  0  0  0  0  0  0  0  0  0  0
    7.8158    1.4263    3.0157 C   0  0  0  0  0  0  0  0  0  0  0  0
    6.8040    1.2539    2.0835 C   0  0  0  0  0  0  0  0  0  0  0  0
    6.1987    2.3318    1.5442 F   0  0  0  0  0  0  0  0  0  0  0  0
    1.4892   -1.3637   -1.1261 H   0  0  0  0  0  0  0  0  0  0  0  0
    1.9170   -0.9893    0.5666 H   0  0  0  0  0  0  0  0  0  0  0  0
    2.4191   -2.5466   -0.1540 H   0  0  0  0  0  0  0  0  0  0  0  0
    2.6418   -0.7751   -3.2361 H   0  0  0  0  0  0  0  0  0  0  0  0
    1.7012    0.3199   -5.2308 H   0  0  0  0  0  0  0  0  0  0  0  0
    1.4250    2.8070   -5.2928 H   0  0  0  0  0  0  0  0  0  0  0  0
    2.1101    4.1616   -3.3200 H   0  0  0  0  0  0  0  0  0  0  0  0
    3.0221    2.7524   -0.0428 H   0  0  0  0  0  0  0  0  0  0  0  0
    2.5046    4.1969   -0.9050 H   0  0  0  0  0  0  0  0  0  0  0  0
    5.3877    2.4400   -2.4235 H   0  0  0  0  0  0  0  0  0  0  0  0
    7.7122    3.2857   -2.3193 H   0  0  0  0  0  0  0  0  0  0  0  0
    8.2913    5.1951   -0.8199 H   0  0  0  0  0  0  0  0  0  0  0  0
    6.5064    6.2457    0.5781 H   0  0  0  0  0  0  0  0  0  0  0  0
    4.1832    5.3894    0.4803 H   0  0  0  0  0  0  0  0  0  0  0  0
    5.0300    0.8371    0.3436 H   0  0  0  0  0  0  0  0  0  0  0  0
    6.6540   -2.1312    1.9270 H   0  0  0  0  0  0  0  0  0  0  0  0
    8.4773   -1.8639    3.6086 H   0  0  0  0  0  0  0  0  0  0  0  0
    9.2236    0.4157    4.3070 H   0  0  0  0  0  0  0  0  0  0  0  0
    8.1079    2.4410    3.2930 H   0  0  0  0  0  0  0  0  0  0  0  0
  1  2  1  0
  1 28  1  0
  1 29  1  0
  1 30  1  0
  2  3  1  6
  2  4  1  0
  2 18  1  0
  4  5  1  0
  5  6  2  0
  5 10  1  0
  6  7  1  0
  6 31  1  0
  7  8  2  0
  7 32  1  0
  8  9  1  0
  8 33  1  0
  9 10  2  0
  9 34  1  0
 10 11  1  0
 11 12  1  0
 11 35  1  0
 11 36  1  0
 12 13  2  0
 12 17  1  0
 13 14  1  0
 13 37  1  0
 14 15  2  0
 14 38  1  0
 15 16  1  0
 15 39  1  0
 16 17  2  0
 16 40  1  0
 17 41  1  0
 18 19  2  0
 18 20  1  0
 20 21  1  0
 20 42  1  0
 21 22  2  0
 21 26  1  0
 22 23  1  0
 22 43  1  0
 23 24  2  0
 23 44  1  0
 24 25  1  0
 24 45  1  0
 25 26  2  0
 25 46  1  0
 26 27  1  0
M  END

