
     RDKit          3D

 43 44  0  0  0  0  0  0  0  0999 V2000
    2.5121   -0.4216   -2.9886 C   0  0  0  0  0  0  0  0  0  0  0  0
    3.4674   -1.2522   -3.8122 C   0  0  0  0  0  0  0  0  0  0  0  0
    3.5217   -1.1306   -5.2102 C   0  0  0  0  0  0  0  0  0  0  0  0
    4.4234   -1.8904   -5.9590 C   0  0  0  0  0  0  0  0  0  0  0  0
    5.2838   -2.7883   -5.3217 C   0  0  0  0  0  0  0  0  0  0  0  0
    5.2470   -2.9310   -3.9277 C   0  0  0  0  0  0  0  0  0  0  0  0
    6.1584   -3.9156   -3.2173 C   0  0  0  0  0  0  0  0  0  0  0  0
    5.4639   -5.0785   -2.6801 N   0  0  0  0  0  0  0  0  0  0  0  0
    5.1096   -5.1816   -1.3621 C   0  0  0  0  0  0  0  0  0  0  0  0
    5.3950   -4.3238   -0.5369 O   0  0  0  0  0  0  0  0  0  0  0  0
    4.3896   -6.4676   -0.9809 C   0  0  0  0  0  0  0  0  0  0  0  0
    5.3400   -7.5230   -0.3607 C   0  0  1  0  0  0  0  0  0  0  0  0
    5.9265   -7.0903    1.0003 C   0  0  0  0  0  0  0  0  0  0  0  0
    4.8906   -7.1248    2.1331 C   0  0  0  0  0  0  0  0  0  0  0  0
    4.2024   -8.4926    2.2362 C   0  0  0  0  0  0  0  0  0  0  0  0
    3.6118   -8.9329    0.8883 C   0  0  0  0  0  0  0  0  0  0  0  0
    4.6503   -8.9173   -0.2485 C   0  0  2  0  0  0  0  0  0  0  0  0
    5.5806  -10.0349   -0.0831 N   0  0  0  0  0  0  0  0  0  0  0  0
    4.3384   -2.1582   -3.1889 C   0  0  0  0  0  0  0  0  0  0  0  0
    1.8215    0.1524   -3.6240 H   0  0  0  0  0  0  0  0  0  0  0  0
    3.0562    0.2964   -2.3517 H   0  0  0  0  0  0  0  0  0  0  0  0
    1.9097   -1.0525   -2.3148 H   0  0  0  0  0  0  0  0  0  0  0  0
    2.8513   -0.4300   -5.7163 H   0  0  0  0  0  0  0  0  0  0  0  0
    4.4554   -1.7817   -7.0465 H   0  0  0  0  0  0  0  0  0  0  0  0
    5.9914   -3.3796   -5.9109 H   0  0  0  0  0  0  0  0  0  0  0  0
    6.6423   -3.4311   -2.3573 H   0  0  0  0  0  0  0  0  0  0  0  0
    6.9487   -4.2573   -3.9052 H   0  0  0  0  0  0  0  0  0  0  0  0
    5.0928   -5.7558   -3.3353 H   0  0  0  0  0  0  0  0  0  0  0  0
    3.8941   -6.9066   -1.8639 H   0  0  0  0  0  0  0  0  0  0  0  0
    3.5980   -6.1870   -0.2709 H   0  0  0  0  0  0  0  0  0  0  0  0
    6.1784   -7.6431   -1.0725 H   0  0  0  0  0  0  0  0  0  0  0  0
    6.3638   -6.0847    0.9175 H   0  0  0  0  0  0  0  0  0  0  0  0
    6.7555   -7.7768    1.2512 H   0  0  0  0  0  0  0  0  0  0  0  0
    4.1320   -6.3407    1.9629 H   0  0  0  0  0  0  0  0  0  0  0  0
    5.3773   -6.8672    3.0887 H   0  0  0  0  0  0  0  0  0  0  0  0
    3.4092   -8.4692    3.0024 H   0  0  0  0  0  0  0  0  0  0  0  0
    4.9314   -9.2462    2.5876 H   0  0  0  0  0  0  0  0  0  0  0  0
    2.7786   -8.2589    0.6239 H   0  0  0  0  0  0  0  0  0  0  0  0
    3.1889   -9.9474    0.9610 H   0  0  0  0  0  0  0  0  0  0  0  0
    4.1149   -9.1022   -1.1978 H   0  0  0  0  0  0  0  0  0  0  0  0
    6.1020   -9.9530    0.7892 H   0  0  0  0  0  0  0  0  0  0  0  0
    6.2767  -10.0324   -0.8293 H   0  0  0  0  0  0  0  0  0  0  0  0
    4.3189   -2.2682   -2.1002 H   0  0  0  0  0  0  0  0  0  0  0  0
  1  2  1  0
  1 20  1  0
  1 21  1  0
  1 22  1  0
  2  3  2  0
  2 19  1  0
  3  4  1  0
  3 23  1  0
  4  5  2  0
  4 24  1  0
  5  6  1  0
  5 25  1  0
  6  7  1  0
  6 19  2  0
  7  8  1  0
  7 26  1  0
  7 27  1  0
  8  9  1  0
  8 28  1  0
  9 10  2  0
  9 11  1  0
 11 12  1  0
 11 29  1  0
 11 30  1  0
 12 13  1  0
 12 17  1  0
 12 31  1  6
 13 14  1  0
 13 32  1  0
 13 33  1  0
 14 15  1  0
 14 34  1  0
 14 35  1  0
 15 16  1  0
 15 36  1  0
 15 37  1  0
 16 17  1  0
 16 38  1  0
 16 39  1  0
 17 18  1  0
 17 40  1  6
 18 41  1  0
 18 42  1  0
 19 43  1  0
M  END

