
     RDKit          3D

 57 60  0  0  0  0  0  0  0  0999 V2000
    0.7567   -0.4405    0.6002 C   0  0  0  0  0  0  0  0  0  0  0  0
    2.2226   -0.3071    0.2690 C   0  0  0  0  0  0  0  0  0  0  0  0
    2.6750    0.5774   -0.7211 C   0  0  0  0  0  0  0  0  0  0  0  0
    4.0310    0.6838   -1.0352 C   0  0  0  0  0  0  0  0  0  0  0  0
    4.9934   -0.0906   -0.3630 C   0  0  0  0  0  0  0  0  0  0  0  0
    6.4240    0.0844   -0.6726 C   0  0  0  0  0  0  0  0  0  0  0  0
    7.1096    1.2747   -0.8215 C   0  0  0  0  0  0  0  0  0  0  0  0
    8.4822    0.9564   -1.0754 C   0  0  0  0  0  0  0  0  0  0  0  0
    9.6416    1.7180   -1.2891 C   0  0  0  0  0  0  0  0  0  0  0  0
   10.8385    1.0427   -1.5172 C   0  0  0  0  0  0  0  0  0  0  0  0
   12.3354    2.0025   -1.7489 S   0  0  1  0  0  0  0  0  0  0  0  0
   12.3224    3.1040   -0.7792 O   0  0  0  0  0  0  0  0  0  0  0  0
   13.4575    1.0572   -1.8198 O   0  0  0  0  0  0  0  0  0  0  0  0
   12.1368    2.7676   -3.2486 N   0  0  0  0  0  0  0  0  0  0  0  0
   12.8132    2.2270   -4.4492 C   0  0  1  0  0  0  0  0  0  0  0  0
   12.0484    1.0264   -5.0293 C   0  0  0  0  0  0  0  0  0  0  0  0
   10.6689    1.4206   -5.5677 C   0  0  0  0  0  0  0  0  0  0  0  0
   10.7430    2.5490   -6.6287 C   0  0  2  0  0  0  0  0  0  0  0  0
   11.2951    2.0047   -7.9507 C   0  0  0  0  0  0  0  0  0  0  0  0
   10.3521    1.4886   -8.7946 N   0  0  0  0  0  0  0  0  0  0  0  0
   12.4825    1.9900   -8.2345 O   0  0  0  0  0  0  0  0  0  0  0  0
   11.5589    3.7441   -6.0950 C   0  0  0  0  0  0  0  0  0  0  0  0
   12.9175    3.3423   -5.5006 C   0  0  0  0  0  0  0  0  0  0  0  0
   10.9271   -0.3644   -1.5131 C   0  0  0  0  0  0  0  0  0  0  0  0
    9.7896   -1.1360   -1.2927 C   0  0  0  0  0  0  0  0  0  0  0  0
    8.5744   -0.4696   -1.0757 C   0  0  0  0  0  0  0  0  0  0  0  0
    7.3177   -0.9809   -0.8338 N   0  0  0  0  0  0  0  0  0  0  0  0
    7.0042   -2.3950   -0.8918 C   0  0  0  0  0  0  0  0  0  0  0  0
    4.5416   -0.9721    0.6400 C   0  0  0  0  0  0  0  0  0  0  0  0
    3.1854   -1.0770    0.9439 C   0  0  0  0  0  0  0  0  0  0  0  0
    0.1552    0.3287    0.0940 H   0  0  0  0  0  0  0  0  0  0  0  0
    0.5803   -0.3505    1.6845 H   0  0  0  0  0  0  0  0  0  0  0  0
    0.3661   -1.4257    0.2926 H   0  0  0  0  0  0  0  0  0  0  0  0
    1.9511    1.1922   -1.2635 H   0  0  0  0  0  0  0  0  0  0  0  0
    4.3538    1.3695   -1.8219 H   0  0  0  0  0  0  0  0  0  0  0  0
    6.6755    2.2656   -0.7104 H   0  0  0  0  0  0  0  0  0  0  0  0
    9.6162    2.8092   -1.2719 H   0  0  0  0  0  0  0  0  0  0  0  0
   12.3451    3.7511   -3.0731 H   0  0  0  0  0  0  0  0  0  0  0  0
   13.8302    1.8966   -4.1778 H   0  0  0  0  0  0  0  0  0  0  0  0
   11.9450    0.2414   -4.2642 H   0  0  0  0  0  0  0  0  0  0  0  0
   12.6647    0.5986   -5.8368 H   0  0  0  0  0  0  0  0  0  0  0  0
   10.0452    1.7763   -4.7317 H   0  0  0  0  0  0  0  0  0  0  0  0
   10.1602    0.5385   -5.9913 H   0  0  0  0  0  0  0  0  0  0  0  0
    9.7130    2.8969   -6.8216 H   0  0  0  0  0  0  0  0  0  0  0  0
    9.3637    1.5093   -8.5854 H   0  0  0  0  0  0  0  0  0  0  0  0
   10.6626    1.0692   -9.6633 H   0  0  0  0  0  0  0  0  0  0  0  0
   10.9502    4.2423   -5.3213 H   0  0  0  0  0  0  0  0  0  0  0  0
   11.7134    4.4822   -6.8985 H   0  0  0  0  0  0  0  0  0  0  0  0
   13.4119    4.2261   -5.0590 H   0  0  0  0  0  0  0  0  0  0  0  0
   13.5656    2.9800   -6.3104 H   0  0  0  0  0  0  0  0  0  0  0  0
   11.9010   -0.8306   -1.6673 H   0  0  0  0  0  0  0  0  0  0  0  0
    9.8580   -2.2254   -1.2748 H   0  0  0  0  0  0  0  0  0  0  0  0
    7.5201   -2.8574   -1.7475 H   0  0  0  0  0  0  0  0  0  0  0  0
    5.9250   -2.5328   -1.0271 H   0  0  0  0  0  0  0  0  0  0  0  0
    7.3140   -2.9235    0.0261 H   0  0  0  0  0  0  0  0  0  0  0  0
    5.2631   -1.5589    1.2128 H   0  0  0  0  0  0  0  0  0  0  0  0
    2.8672   -1.7633    1.7343 H   0  0  0  0  0  0  0  0  0  0  0  0
  1  2  1  0
  1 31  1  0
  1 32  1  0
  1 33  1  0
  2  3  2  0
  2 30  1  0
  3  4  1  0
  3 34  1  0
  4  5  2  0
  4 35  1  0
  5  6  1  0
  5 29  1  0
  6  7  2  0
  6 27  1  0
  7  8  1  0
  7 36  1  0
  8  9  2  0
  8 26  1  0
  9 10  1  0
  9 37  1  0
 10 11  1  0
 10 24  2  0
 11 12  2  0
 11 13  2  0
 11 14  1  6
 14 15  1  0
 14 38  1  0
 15 16  1  0
 15 23  1  0
 15 39  1  1
 16 17  1  0
 16 40  1  0
 16 41  1  0
 17 18  1  0
 17 42  1  0
 17 43  1  0
 18 19  1  0
 18 22  1  0
 18 44  1  6
 19 20  1  0
 19 21  2  0
 20 45  1  0
 20 46  1  0
 22 23  1  0
 22 47  1  0
 22 48  1  0
 23 49  1  0
 23 50  1  0
 24 25  1  0
 24 51  1  0
 25 26  2  0
 25 52  1  0
 26 27  1  0
 27 28  1  0
 28 53  1  0
 28 54  1  0
 28 55  1  0
 29 30  2  0
 29 56  1  0
 30 57  1  0
M  END

