
     RDKit          3D

 38 38  0  0  0  0  0  0  0  0999 V2000
    6.6273    1.8670   -2.0595 C   0  0  0  0  0  0  0  0  0  0  0  0
    6.2299    1.2755   -0.7229 C   0  0  0  0  0  0  0  0  0  0  0  0
    6.9863    0.5506   -0.0823 O   0  0  0  0  0  0  0  0  0  0  0  0
    4.9942    1.6052   -0.2547 N   0  0  0  0  0  0  0  0  0  0  0  0
    4.4594    1.0417    0.9755 C   0  0  0  0  0  0  0  0  0  0  0  0
    4.9483    1.7246    2.2624 C   0  0  0  0  0  0  0  0  0  0  0  0
    4.1425    2.3200    2.9868 O   0  0  0  0  0  0  0  0  0  0  0  0
    6.2629    1.5930    2.5240 N   0  0  0  0  0  0  0  0  0  0  0  0
    7.0366    2.2655    3.5968 C   0  0  1  0  0  0  0  0  0  0  0  0
    6.5867    1.7732    5.0109 C   0  0  0  0  0  0  0  0  0  0  0  0
    7.3787    1.3715    5.8257 O   0  0  0  0  0  0  0  0  0  0  0  0
    5.2910    1.8810    5.2876 O   0  0  0  0  0  0  0  0  0  0  0  0
    8.5215    1.9088    3.3920 C   0  0  0  0  0  0  0  0  0  0  0  0
    9.1397    2.5386    2.1353 C   0  0  0  0  0  0  0  0  0  0  0  0
    8.9627    4.0699    2.0764 C   0  0  2  0  0  0  0  0  0  0  0  0
    9.8757    4.8104    3.0648 C   0  0  0  0  0  0  0  0  0  0  0  0
    7.4731    4.4205    2.2668 C   0  0  0  0  0  0  0  0  0  0  0  0
    6.8621    3.8080    3.5338 C   0  0  0  0  0  0  0  0  0  0  0  0
    7.0673    1.0698   -2.6753 H   0  0  0  0  0  0  0  0  0  0  0  0
    7.4127    2.6215   -1.8950 H   0  0  0  0  0  0  0  0  0  0  0  0
    5.7929    2.3323   -2.6035 H   0  0  0  0  0  0  0  0  0  0  0  0
    4.4131    2.2430   -0.7844 H   0  0  0  0  0  0  0  0  0  0  0  0
    4.7258   -0.0271    1.0175 H   0  0  0  0  0  0  0  0  0  0  0  0
    3.3669    1.1356    0.9682 H   0  0  0  0  0  0  0  0  0  0  0  0
    6.7899    1.0467    1.8369 H   0  0  0  0  0  0  0  0  0  0  0  0
    4.7623    2.1780    4.4978 H   0  0  0  0  0  0  0  0  0  0  0  0
    8.6297    0.8121    3.3723 H   0  0  0  0  0  0  0  0  0  0  0  0
    9.0526    2.2344    4.2963 H   0  0  0  0  0  0  0  0  0  0  0  0
    8.6947    2.0867    1.2323 H   0  0  0  0  0  0  0  0  0  0  0  0
   10.2116    2.2808    2.0988 H   0  0  0  0  0  0  0  0  0  0  0  0
    9.2538    4.4001    1.0631 H   0  0  0  0  0  0  0  0  0  0  0  0
    9.6768    4.5376    4.1133 H   0  0  0  0  0  0  0  0  0  0  0  0
    9.7478    5.9019    2.9794 H   0  0  0  0  0  0  0  0  0  0  0  0
   10.9352    4.5825    2.8651 H   0  0  0  0  0  0  0  0  0  0  0  0
    6.9056    4.0641    1.3890 H   0  0  0  0  0  0  0  0  0  0  0  0
    7.3387    5.5153    2.2922 H   0  0  0  0  0  0  0  0  0  0  0  0
    5.7970    4.0687    3.6065 H   0  0  0  0  0  0  0  0  0  0  0  0
    7.3475    4.2249    4.4314 H   0  0  0  0  0  0  0  0  0  0  0  0
  1  2  1  0
  1 19  1  0
  1 20  1  0
  1 21  1  0
  2  3  2  0
  2  4  1  0
  4  5  1  0
  4 22  1  0
  5  6  1  0
  5 23  1  0
  5 24  1  0
  6  7  2  0
  6  8  1  0
  8  9  1  0
  8 25  1  0
  9 10  1  1
  9 13  1  0
  9 18  1  0
 10 11  2  0
 10 12  1  0
 12 26  1  0
 13 14  1  0
 13 27  1  0
 13 28  1  0
 14 15  1  0
 14 29  1  0
 14 30  1  0
 15 16  1  0
 15 17  1  0
 15 31  1  6
 16 32  1  0
 16 33  1  0
 16 34  1  0
 17 18  1  0
 17 35  1  0
 17 36  1  0
 18 37  1  0
 18 38  1  0
M  END

