
     RDKit          3D

 41 42  0  0  0  0  0  0  0  0999 V2000
    1.0599    0.3376    0.9924 C   0  0  0  0  0  0  0  0  0  0  0  0
    2.5108    0.1880    0.6050 C   0  0  0  0  0  0  0  0  0  0  0  0
    3.3199    1.3184    0.4075 C   0  0  0  0  0  0  0  0  0  0  0  0
    4.6613    1.2137    0.0503 C   0  0  0  0  0  0  0  0  0  0  0  0
    5.2334   -0.0537   -0.1203 C   0  0  0  0  0  0  0  0  0  0  0  0
    6.5527   -0.0800   -0.4700 O   0  0  0  0  0  0  0  0  0  0  0  0
    7.1985   -1.3177   -0.6763 C   0  0  0  0  0  0  0  0  0  0  0  0
    8.6409   -1.0021   -1.0507 C   0  0  0  0  0  0  0  0  0  0  0  0
    9.5194   -2.2500   -1.3420 C   0  0  1  0  0  0  0  0  0  0  0  0
    9.6381   -3.0981   -0.1459 C   0  0  0  0  0  0  0  0  0  0  0  0
    9.7121   -3.7524    0.8072 N   0  0  0  0  0  0  0  0  0  0  0  0
    9.0644   -3.0358   -2.5734 C   0  0  0  0  0  0  0  0  0  0  0  0
    9.2784   -2.4731   -3.8437 C   0  0  0  0  0  0  0  0  0  0  0  0
    8.8602   -3.1301   -4.9984 C   0  0  0  0  0  0  0  0  0  0  0  0
    8.2234   -4.3654   -4.8719 C   0  0  0  0  0  0  0  0  0  0  0  0
    7.7769   -5.0718   -6.0926 N   0  0  0  0  0  0  0  0  0  0  0  0
    7.9937   -4.5319   -7.1648 O   0  0  0  0  0  0  0  0  0  0  0  0
    7.2201   -6.1473   -5.9481 O   0  0  0  0  0  0  0  0  0  0  0  0
    8.0027   -4.9535   -3.6283 C   0  0  0  0  0  0  0  0  0  0  0  0
    8.4280   -4.2823   -2.4805 C   0  0  0  0  0  0  0  0  0  0  0  0
    4.4443   -1.1955    0.0720 C   0  0  0  0  0  0  0  0  0  0  0  0
    3.0908   -1.0869    0.4325 C   0  0  0  0  0  0  0  0  0  0  0  0
    2.2680   -2.3364    0.6331 C   0  0  0  0  0  0  0  0  0  0  0  0
    0.7788    1.3971    1.0820 H   0  0  0  0  0  0  0  0  0  0  0  0
    0.8398   -0.1482    1.9588 H   0  0  0  0  0  0  0  0  0  0  0  0
    0.3859   -0.1243    0.2503 H   0  0  0  0  0  0  0  0  0  0  0  0
    2.8836    2.3130    0.5381 H   0  0  0  0  0  0  0  0  0  0  0  0
    5.2833    2.0981   -0.1010 H   0  0  0  0  0  0  0  0  0  0  0  0
    6.6997   -1.8875   -1.4828 H   0  0  0  0  0  0  0  0  0  0  0  0
    7.1627   -1.9367    0.2402 H   0  0  0  0  0  0  0  0  0  0  0  0
    9.1012   -0.4220   -0.2356 H   0  0  0  0  0  0  0  0  0  0  0  0
    8.6437   -0.3583   -1.9440 H   0  0  0  0  0  0  0  0  0  0  0  0
   10.5371   -1.8766   -1.5494 H   0  0  0  0  0  0  0  0  0  0  0  0
    9.7839   -1.5080   -3.9341 H   0  0  0  0  0  0  0  0  0  0  0  0
    9.0209   -2.7099   -5.9908 H   0  0  0  0  0  0  0  0  0  0  0  0
    7.5076   -5.9227   -3.5746 H   0  0  0  0  0  0  0  0  0  0  0  0
    8.2706   -4.7424   -1.5026 H   0  0  0  0  0  0  0  0  0  0  0  0
    4.8695   -2.1921   -0.0532 H   0  0  0  0  0  0  0  0  0  0  0  0
    2.8633   -3.2451    0.4623 H   0  0  0  0  0  0  0  0  0  0  0  0
    1.4035   -2.3670   -0.0518 H   0  0  0  0  0  0  0  0  0  0  0  0
    1.8573   -2.3913    1.6558 H   0  0  0  0  0  0  0  0  0  0  0  0
  1  2  1  0
  1 24  1  0
  1 25  1  0
  1 26  1  0
  2  3  2  0
  2 22  1  0
  3  4  1  0
  3 27  1  0
  4  5  2  0
  4 28  1  0
  5  6  1  0
  5 21  1  0
  6  7  1  0
  7  8  1  0
  7 29  1  0
  7 30  1  0
  8  9  1  0
  8 31  1  0
  8 32  1  0
  9 10  1  0
  9 12  1  0
  9 33  1  6
 10 11  3  0
 12 13  2  0
 12 20  1  0
 13 14  1  0
 13 34  1  0
 14 15  2  0
 14 35  1  0
 15 16  1  0
 15 19  1  0
 16 17  2  0
 16 18  1  0
 19 20  2  0
 19 36  1  0
 20 37  1  0
 21 22  2  0
 21 38  1  0
 22 23  1  0
 23 39  1  0
 23 40  1  0
 23 41  1  0
M  CHG  2  16   1  18  -1
M  END

