
     RDKit          3D

 77 80  0  0  0  0  0  0  0  0999 V2000
    4.9742    1.1942    0.5463 C   0  0  0  0  0  0  0  0  0  0  0  0
    4.8253   -0.3023    0.2147 C   0  0  1  0  0  0  0  0  0  0  0  0
    5.7386   -1.1781    1.0828 C   0  0  0  0  0  0  0  0  0  0  0  0
    3.3416   -0.8107    0.0922 C   0  0  1  0  0  0  0  0  0  0  0  0
    3.3192   -2.0042   -0.8740 C   0  0  0  0  0  0  0  0  0  0  0  0
    3.5273   -3.3015   -0.3813 C   0  0  0  0  0  0  0  0  0  0  0  0
    3.5671   -4.4111   -1.2254 C   0  0  0  0  0  0  0  0  0  0  0  0
    3.3756   -4.2412   -2.5985 C   0  0  0  0  0  0  0  0  0  0  0  0
    3.3656   -5.4360   -3.5335 C   0  0  1  0  0  0  0  0  0  0  0  0
    1.9936   -6.0218   -3.8082 C   0  0  0  0  0  0  0  0  0  0  0  0
    3.9273   -5.0749   -4.7386 F   0  0  0  0  0  0  0  0  0  0  0  0
    4.1652   -6.4228   -3.0199 F   0  0  0  0  0  0  0  0  0  0  0  0
    3.1545   -2.9553   -3.1013 C   0  0  0  0  0  0  0  0  0  0  0  0
    3.1393   -1.8318   -2.2674 C   0  0  0  0  0  0  0  0  0  0  0  0
    2.9200   -0.4388   -2.8592 C   0  0  0  0  0  0  0  0  0  0  0  0
    2.7797   -0.3567   -4.3058 N   0  0  0  0  0  0  0  0  0  0  0  0
    3.9129   -0.0179   -5.1675 C   0  0  0  0  0  0  0  0  0  0  0  0
    4.5139   -1.1872   -5.9351 C   0  0  0  0  0  0  0  0  0  0  0  0
    4.0518   -1.5101   -7.2175 C   0  0  0  0  0  0  0  0  0  0  0  0
    4.5639   -2.6201   -7.8978 C   0  0  0  0  0  0  0  0  0  0  0  0
    4.0660   -2.9185   -9.2914 C   0  0  1  0  0  0  0  0  0  0  0  0
    2.7321   -2.7573   -9.3851 F   0  0  0  0  0  0  0  0  0  0  0  0
    4.6199   -2.0923  -10.1995 F   0  0  0  0  0  0  0  0  0  0  0  0
    4.3492   -4.1740   -9.6727 F   0  0  0  0  0  0  0  0  0  0  0  0
    5.5389   -3.4263   -7.3066 C   0  0  0  0  0  0  0  0  0  0  0  0
    6.0108   -3.1016   -6.0331 C   0  0  0  0  0  0  0  0  0  0  0  0
    7.0800   -3.9421   -5.3765 C   0  0  1  0  0  0  0  0  0  0  0  0
    7.1833   -5.1556   -5.9374 F   0  0  0  0  0  0  0  0  0  0  0  0
    8.2904   -3.3538   -5.4768 F   0  0  0  0  0  0  0  0  0  0  0  0
    6.8406   -4.1121   -4.0660 F   0  0  0  0  0  0  0  0  0  0  0  0
    5.5075   -1.9873   -5.3570 C   0  0  0  0  0  0  0  0  0  0  0  0
    1.5265   -0.4162   -4.8500 C   0  0  0  0  0  0  0  0  0  0  0  0
    0.3985   -0.6391   -4.1193 N   0  0  0  0  0  0  0  0  0  0  0  0
   -0.5938   -0.6088   -4.9684 N   0  0  0  0  0  0  0  0  0  0  0  0
   -0.0747   -0.3815   -6.1544 N   0  0  0  0  0  0  0  0  0  0  0  0
   -0.8676   -0.2974   -7.3622 C   0  0  0  0  0  0  0  0  0  0  0  0
    1.2542   -0.2519   -6.1476 N   0  0  0  0  0  0  0  0  0  0  0  0
    2.6782   -1.1811    1.3552 N   0  0  0  0  0  0  0  0  0  0  0  0
    2.7805   -0.2766    2.4986 C   0  0  0  0  0  0  0  0  0  0  0  0
    1.8868    0.9769    2.3986 C   0  0  0  0  0  0  0  0  0  0  0  0
    0.4430    0.5732    2.1591 C   0  0  2  0  0  0  0  0  0  0  0  0
   -0.3253    1.6820    1.9254 F   0  0  0  0  0  0  0  0  0  0  0  0
   -0.0517    0.0040    3.3133 F   0  0  0  0  0  0  0  0  0  0  0  0
    0.2941   -0.4213    1.0228 C   0  0  0  0  0  0  0  0  0  0  0  0
    1.2781   -1.5956    1.2023 C   0  0  0  0  0  0  0  0  0  0  0  0
    6.0075    1.5192    0.3434 H   0  0  0  0  0  0  0  0  0  0  0  0
    4.7670    1.4348    1.5991 H   0  0  0  0  0  0  0  0  0  0  0  0
    4.3078    1.8143   -0.0757 H   0  0  0  0  0  0  0  0  0  0  0  0
    5.2062   -0.4001   -0.8169 H   0  0  0  0  0  0  0  0  0  0  0  0
    5.4494   -1.1684    2.1442 H   0  0  0  0  0  0  0  0  0  0  0  0
    6.7767   -0.8143    1.0193 H   0  0  0  0  0  0  0  0  0  0  0  0
    5.7357   -2.2249    0.7476 H   0  0  0  0  0  0  0  0  0  0  0  0
    2.7988    0.0209   -0.4002 H   0  0  0  0  0  0  0  0  0  0  0  0
    3.6435   -3.4317    0.6959 H   0  0  0  0  0  0  0  0  0  0  0  0
    3.7521   -5.4065   -0.8176 H   0  0  0  0  0  0  0  0  0  0  0  0
    1.3396   -5.2621   -4.2583 H   0  0  0  0  0  0  0  0  0  0  0  0
    1.5385   -6.3691   -2.8701 H   0  0  0  0  0  0  0  0  0  0  0  0
    2.0983   -6.8712   -4.4995 H   0  0  0  0  0  0  0  0  0  0  0  0
    3.0058   -2.8221   -4.1720 H   0  0  0  0  0  0  0  0  0  0  0  0
    3.7570    0.2202   -2.5759 H   0  0  0  0  0  0  0  0  0  0  0  0
    2.0138   -0.0041   -2.4086 H   0  0  0  0  0  0  0  0  0  0  0  0
    4.6854    0.4312   -4.5257 H   0  0  0  0  0  0  0  0  0  0  0  0
    3.5884    0.7541   -5.8833 H   0  0  0  0  0  0  0  0  0  0  0  0
    3.2645   -0.9056   -7.6702 H   0  0  0  0  0  0  0  0  0  0  0  0
    5.9183   -4.3059   -7.8260 H   0  0  0  0  0  0  0  0  0  0  0  0
    5.8775   -1.7588   -4.3550 H   0  0  0  0  0  0  0  0  0  0  0  0
   -1.9148   -0.4558   -7.0796 H   0  0  0  0  0  0  0  0  0  0  0  0
   -0.5450   -1.0702   -8.0750 H   0  0  0  0  0  0  0  0  0  0  0  0
   -0.7457    0.6935   -7.8234 H   0  0  0  0  0  0  0  0  0  0  0  0
    3.8216    0.0136    2.6710 H   0  0  0  0  0  0  0  0  0  0  0  0
    2.4684   -0.8442    3.3921 H   0  0  0  0  0  0  0  0  0  0  0  0
    2.2022    1.6269    1.5681 H   0  0  0  0  0  0  0  0  0  0  0  0
    1.9342    1.5717    3.3248 H   0  0  0  0  0  0  0  0  0  0  0  0
    0.4742    0.1088    0.0743 H   0  0  0  0  0  0  0  0  0  0  0  0
   -0.7467   -0.7807    1.0043 H   0  0  0  0  0  0  0  0  0  0  0  0
    1.1807   -2.2908    0.3592 H   0  0  0  0  0  0  0  0  0  0  0  0
    0.9913   -2.1517    2.1111 H   0  0  0  0  0  0  0  0  0  0  0  0
  1  2  1  0
  1 46  1  0
  1 47  1  0
  1 48  1  0
  2  3  1  0
  2  4  1  0
  2 49  1  6
  3 50  1  0
  3 51  1  0
  3 52  1  0
  4  5  1  0
  4 38  1  0
  4 53  1  6
  5  6  2  0
  5 14  1  0
  6  7  1  0
  6 54  1  0
  7  8  2  0
  7 55  1  0
  8  9  1  0
  8 13  1  0
  9 10  1  0
  9 11  1  6
  9 12  1  0
 10 56  1  0
 10 57  1  0
 10 58  1  0
 13 14  2  0
 13 59  1  0
 14 15  1  0
 15 16  1  0
 15 60  1  0
 15 61  1  0
 16 17  1  0
 16 32  1  0
 17 18  1  0
 17 62  1  0
 17 63  1  0
 18 19  2  0
 18 31  1  0
 19 20  1  0
 19 64  1  0
 20 21  1  0
 20 25  2  0
 21 22  1  1
 21 23  1  0
 21 24  1  0
 25 26  1  0
 25 65  1  0
 26 27  1  0
 26 31  2  0
 27 28  1  6
 27 29  1  0
 27 30  1  0
 31 66  1  0
 32 33  1  0
 32 37  2  0
 33 34  2  0
 34 35  1  0
 35 36  1  0
 35 37  1  0
 36 67  1  0
 36 68  1  0
 36 69  1  0
 38 39  1  0
 38 45  1  0
 39 40  1  0
 39 70  1  0
 39 71  1  0
 40 41  1  0
 40 72  1  0
 40 73  1  0
 41 42  1  6
 41 43  1  0
 41 44  1  0
 44 45  1  0
 44 74  1  0
 44 75  1  0
 45 76  1  0
 45 77  1  0
M  END

