
     RDKit          3D

 54 55  0  0  0  0  0  0  0  0999 V2000
    8.2887    1.8514    0.8069 C   0  0  0  0  0  0  0  0  0  0  0  0
    7.1293    1.1965    1.5578 C   0  0  0  0  0  0  0  0  0  0  0  0
    5.8342    1.0798    0.7420 C   0  0  0  0  0  0  0  0  0  0  0  0
    5.9799    0.3125   -0.4971 N   0  0  0  0  0  0  0  0  0  0  0  0
    6.2449   -1.0998   -0.3444 C   0  0  0  0  0  0  0  0  0  0  0  0
    5.0776   -1.9495    0.2322 C   0  0  0  0  0  0  0  0  0  0  0  0
    4.0181   -1.3988    0.5077 O   0  0  0  0  0  0  0  0  0  0  0  0
    5.2683   -3.2945    0.4134 N   0  0  0  0  0  0  0  0  0  0  0  0
    6.5423   -3.9663    0.0746 C   0  0  1  0  0  0  0  0  0  0  0  0
    7.2405   -4.5538    1.3105 C   0  0  0  0  0  0  0  0  0  0  0  0
    6.3780   -5.0022   -1.0480 C   0  0  0  0  0  0  0  0  0  0  0  0
    4.1914   -4.1656    0.9631 C   0  0  1  0  0  0  0  0  0  0  0  0
    3.7990   -3.8925    2.4411 C   0  0  0  0  0  0  0  0  0  0  0  0
    2.5781   -2.9911    2.6767 C   0  0  0  0  0  0  0  0  0  0  0  0
    1.3849   -3.4257    1.8173 C   0  0  0  0  0  0  0  0  0  0  0  0
    1.7467   -3.4366    0.3274 C   0  0  0  0  0  0  0  0  0  0  0  0
    2.9493   -4.3499    0.0488 C   0  0  0  0  0  0  0  0  0  0  0  0
    5.0182    0.6478   -1.5304 C   0  0  1  0  0  0  0  0  0  0  0  0
    5.0667    2.0840   -2.1115 C   0  0  0  0  0  0  0  0  0  0  0  0
    4.8907    1.5053   -3.4560 N   0  0  0  0  0  0  0  0  0  0  0  0
    5.3344    0.1855   -2.9764 C   0  0  0  0  0  0  0  0  0  0  0  0
    9.1944    1.9092    1.4319 H   0  0  0  0  0  0  0  0  0  0  0  0
    8.0305    2.8786    0.4981 H   0  0  0  0  0  0  0  0  0  0  0  0
    8.5352    1.2897   -0.1071 H   0  0  0  0  0  0  0  0  0  0  0  0
    6.8927    1.7774    2.4665 H   0  0  0  0  0  0  0  0  0  0  0  0
    7.4374    0.2015    1.9267 H   0  0  0  0  0  0  0  0  0  0  0  0
    5.5224    2.0974    0.4541 H   0  0  0  0  0  0  0  0  0  0  0  0
    5.0254    0.6773    1.3811 H   0  0  0  0  0  0  0  0  0  0  0  0
    7.1318   -1.2289    0.2976 H   0  0  0  0  0  0  0  0  0  0  0  0
    6.5282   -1.5114   -1.3282 H   0  0  0  0  0  0  0  0  0  0  0  0
    7.2096   -3.1923   -0.3176 H   0  0  0  0  0  0  0  0  0  0  0  0
    6.6646   -5.3758    1.7640 H   0  0  0  0  0  0  0  0  0  0  0  0
    7.3922   -3.7814    2.0802 H   0  0  0  0  0  0  0  0  0  0  0  0
    8.2266   -4.9582    1.0320 H   0  0  0  0  0  0  0  0  0  0  0  0
    5.7518   -5.8548   -0.7419 H   0  0  0  0  0  0  0  0  0  0  0  0
    7.3617   -5.4048   -1.3377 H   0  0  0  0  0  0  0  0  0  0  0  0
    5.9189   -4.5465   -1.9388 H   0  0  0  0  0  0  0  0  0  0  0  0
    4.6756   -5.1488    0.9796 H   0  0  0  0  0  0  0  0  0  0  0  0
    4.6787   -3.5085    2.9824 H   0  0  0  0  0  0  0  0  0  0  0  0
    3.5776   -4.8803    2.8864 H   0  0  0  0  0  0  0  0  0  0  0  0
    2.8322   -1.9493    2.4403 H   0  0  0  0  0  0  0  0  0  0  0  0
    2.3099   -3.0329    3.7468 H   0  0  0  0  0  0  0  0  0  0  0  0
    0.5267   -2.7560    1.9942 H   0  0  0  0  0  0  0  0  0  0  0  0
    1.0561   -4.4377    2.1254 H   0  0  0  0  0  0  0  0  0  0  0  0
    1.9723   -2.4120    0.0026 H   0  0  0  0  0  0  0  0  0  0  0  0
    0.8882   -3.7920   -0.2687 H   0  0  0  0  0  0  0  0  0  0  0  0
    3.2627   -4.2729   -1.0048 H   0  0  0  0  0  0  0  0  0  0  0  0
    2.6170   -5.3952    0.1900 H   0  0  0  0  0  0  0  0  0  0  0  0
    3.9833    0.3757   -1.2552 H   0  0  0  0  0  0  0  0  0  0  0  0
    6.0581    2.5448   -1.9320 H   0  0  0  0  0  0  0  0  0  0  0  0
    4.2790    2.7927   -1.8022 H   0  0  0  0  0  0  0  0  0  0  0  0
    5.4470    1.9221   -4.2005 H   0  0  0  0  0  0  0  0  0  0  0  0
    6.4198   -0.0062   -3.0983 H   0  0  0  0  0  0  0  0  0  0  0  0
    4.7708   -0.6741   -3.3799 H   0  0  0  0  0  0  0  0  0  0  0  0
  1  2  1  0
  1 22  1  0
  1 23  1  0
  1 24  1  0
  2  3  1  0
  2 25  1  0
  2 26  1  0
  3  4  1  0
  3 27  1  0
  3 28  1  0
  4  5  1  0
  4 18  1  0
  5  6  1  0
  5 29  1  0
  5 30  1  0
  6  7  2  0
  6  8  1  0
  8  9  1  0
  8 12  1  0
  9 10  1  0
  9 11  1  0
  9 31  1  6
 10 32  1  0
 10 33  1  0
 10 34  1  0
 11 35  1  0
 11 36  1  0
 11 37  1  0
 12 13  1  0
 12 17  1  0
 12 38  1  1
 13 14  1  0
 13 39  1  0
 13 40  1  0
 14 15  1  0
 14 41  1  0
 14 42  1  0
 15 16  1  0
 15 43  1  0
 15 44  1  0
 16 17  1  0
 16 45  1  0
 16 46  1  0
 17 47  1  0
 17 48  1  0
 18 19  1  0
 18 21  1  0
 18 49  1  1
 19 20  1  0
 19 50  1  0
 19 51  1  0
 20 21  1  0
 20 52  1  0
 21 53  1  0
 21 54  1  0
M  END

