
     RDKit          3D

 46 46  0  0  0  0  0  0  0  0999 V2000
    0.8994   -0.2777    0.5255 C   0  0  0  0  0  0  0  0  0  0  0  0
    2.3657   -0.1074    0.1749 C   0  0  0  0  0  0  0  0  0  0  0  0
    2.9280   -1.3940   -0.0050 O   0  0  0  0  0  0  0  0  0  0  0  0
    4.2463   -1.5108   -0.3263 C   0  0  0  0  0  0  0  0  0  0  0  0
    5.1203   -0.4364   -0.5024 C   0  0  0  0  0  0  0  0  0  0  0  0
    6.4630   -0.6923   -0.8394 C   0  0  0  0  0  0  0  0  0  0  0  0
    6.9293   -1.9915   -0.9940 C   0  0  0  0  0  0  0  0  0  0  0  0
    8.2117   -2.3410   -1.3326 O   0  0  0  0  0  0  0  0  0  0  0  0
    9.1772   -1.3272   -1.5489 C   0  0  0  0  0  0  0  0  0  0  0  0
   10.4952   -1.9889   -1.9035 C   0  0  0  0  0  0  0  0  0  0  0  0
    6.0447   -3.0941   -0.8065 C   0  0  0  0  0  0  0  0  0  0  0  0
    6.5815   -4.3765   -0.9146 N   0  0  0  0  0  0  0  0  0  0  0  0
    5.7835   -5.5506   -1.2741 C   0  0  1  0  0  0  0  0  0  0  0  0
    5.2875   -5.5201   -2.7388 C   0  0  0  0  0  0  0  0  0  0  0  0
    6.3897   -5.5078   -3.8002 C   0  0  0  0  0  0  0  0  0  0  0  0
    6.5820   -6.8294   -0.9464 C   0  0  0  0  0  0  0  0  0  0  0  0
    6.7220   -7.1260    0.5253 C   0  0  0  0  0  0  0  0  0  0  0  0
    7.3430   -6.1979    1.3195 N   0  0  0  0  0  0  0  0  0  0  0  0
    6.2823   -8.2696    0.9329 N   0  0  0  0  0  0  0  0  0  0  0  0
    6.4888   -8.3948    2.3282 O   0  0  0  0  0  0  0  0  0  0  0  0
    4.7126   -2.8301   -0.4821 C   0  0  0  0  0  0  0  0  0  0  0  0
    0.4251    0.7047    0.6749 H   0  0  0  0  0  0  0  0  0  0  0  0
    0.7869   -0.8637    1.4505 H   0  0  0  0  0  0  0  0  0  0  0  0
    0.3657   -0.8039   -0.2808 H   0  0  0  0  0  0  0  0  0  0  0  0
    2.8999    0.4323    0.9806 H   0  0  0  0  0  0  0  0  0  0  0  0
    2.4797    0.4906   -0.7500 H   0  0  0  0  0  0  0  0  0  0  0  0
    4.7900    0.5953   -0.3907 H   0  0  0  0  0  0  0  0  0  0  0  0
    7.1355    0.1539   -0.9827 H   0  0  0  0  0  0  0  0  0  0  0  0
    9.2826   -0.7087   -0.6371 H   0  0  0  0  0  0  0  0  0  0  0  0
    8.8431   -0.6559   -2.3633 H   0  0  0  0  0  0  0  0  0  0  0  0
   10.8315   -2.6491   -1.0894 H   0  0  0  0  0  0  0  0  0  0  0  0
   11.2702   -1.2257   -2.0741 H   0  0  0  0  0  0  0  0  0  0  0  0
   10.3962   -2.5921   -2.8192 H   0  0  0  0  0  0  0  0  0  0  0  0
    7.5056   -4.3574   -1.3381 H   0  0  0  0  0  0  0  0  0  0  0  0
    4.8916   -5.5552   -0.6271 H   0  0  0  0  0  0  0  0  0  0  0  0
    4.6528   -4.6268   -2.8634 H   0  0  0  0  0  0  0  0  0  0  0  0
    4.6262   -6.3901   -2.8950 H   0  0  0  0  0  0  0  0  0  0  0  0
    7.0667   -4.6475   -3.6692 H   0  0  0  0  0  0  0  0  0  0  0  0
    5.9578   -5.4290   -4.8101 H   0  0  0  0  0  0  0  0  0  0  0  0
    7.0011   -6.4244   -3.7769 H   0  0  0  0  0  0  0  0  0  0  0  0
    7.5885   -6.7580   -1.3985 H   0  0  0  0  0  0  0  0  0  0  0  0
    6.0852   -7.6989   -1.3978 H   0  0  0  0  0  0  0  0  0  0  0  0
    7.3067   -5.2393    0.9836 H   0  0  0  0  0  0  0  0  0  0  0  0
    7.2456   -6.3505    2.3175 H   0  0  0  0  0  0  0  0  0  0  0  0
    6.1039   -9.2582    2.5165 H   0  0  0  0  0  0  0  0  0  0  0  0
    3.9967   -3.6376   -0.3310 H   0  0  0  0  0  0  0  0  0  0  0  0
  1  2  1  0
  1 22  1  0
  1 23  1  0
  1 24  1  0
  2  3  1  0
  2 25  1  0
  2 26  1  0
  3  4  1  0
  4  5  2  0
  4 21  1  0
  5  6  1  0
  5 27  1  0
  6  7  2  0
  6 28  1  0
  7  8  1  0
  7 11  1  0
  8  9  1  0
  9 10  1  0
  9 29  1  0
  9 30  1  0
 10 31  1  0
 10 32  1  0
 10 33  1  0
 11 12  1  0
 11 21  2  0
 12 13  1  0
 12 34  1  0
 13 14  1  0
 13 16  1  0
 13 35  1  1
 14 15  1  0
 14 36  1  0
 14 37  1  0
 15 38  1  0
 15 39  1  0
 15 40  1  0
 16 17  1  0
 16 41  1  0
 16 42  1  0
 17 18  1  0
 17 19  2  0
 18 43  1  0
 18 44  1  0
 19 20  1  0
 20 45  1  0
 21 46  1  0
M  END

