
     RDKit          3D

 43 44  0  0  0  0  0  0  0  0999 V2000
    1.2875   -0.9015    1.5016 C   0  0  0  0  0  0  0  0  0  0  0  0
    2.7312   -1.2939    1.2509 C   0  0  0  0  0  0  0  0  0  0  0  0
    3.1113   -0.7867   -0.0172 O   0  0  0  0  0  0  0  0  0  0  0  0
    4.3684   -1.0047   -0.4825 C   0  0  0  0  0  0  0  0  0  0  0  0
    5.3634   -1.7152    0.2071 C   0  0  0  0  0  0  0  0  0  0  0  0
    6.6282   -1.8793   -0.3688 C   0  0  0  0  0  0  0  0  0  0  0  0
    6.9349   -1.3525   -1.6291 C   0  0  0  0  0  0  0  0  0  0  0  0
    8.3202   -1.5006   -2.2257 C   0  0  0  0  0  0  0  0  0  0  0  0
    8.9210   -2.7908   -1.9220 N   0  0  0  0  0  0  0  0  0  0  0  0
   10.2685   -2.9957   -2.4330 C   0  0  0  0  0  0  0  0  0  0  0  0
   11.3497   -2.3681   -1.5297 C   0  0  0  0  0  0  0  0  0  0  0  0
   12.7576   -2.6135   -2.0304 C   0  0  0  0  0  0  0  0  0  0  0  0
   13.4363   -3.7733   -1.6248 C   0  0  0  0  0  0  0  0  0  0  0  0
   14.7214   -4.0804   -2.0767 C   0  0  0  0  0  0  0  0  0  0  0  0
   15.3332   -3.1954   -2.9569 C   0  0  0  0  0  0  0  0  0  0  0  0
   16.5701   -3.4613   -3.4086 F   0  0  0  0  0  0  0  0  0  0  0  0
   14.6949   -2.0334   -3.3798 C   0  0  0  0  0  0  0  0  0  0  0  0
   13.4032   -1.7270   -2.9264 C   0  0  0  0  0  0  0  0  0  0  0  0
   12.7423   -0.4486   -3.3878 C   0  0  0  0  0  0  0  0  0  0  0  0
    5.9247   -0.6514   -2.3096 C   0  0  0  0  0  0  0  0  0  0  0  0
    4.6628   -0.4740   -1.7504 C   0  0  0  0  0  0  0  0  0  0  0  0
    0.9538   -1.2788    2.4807 H   0  0  0  0  0  0  0  0  0  0  0  0
    0.6306   -1.3201    0.7238 H   0  0  0  0  0  0  0  0  0  0  0  0
    1.1754    0.1935    1.4928 H   0  0  0  0  0  0  0  0  0  0  0  0
    2.8464   -2.3946    1.2698 H   0  0  0  0  0  0  0  0  0  0  0  0
    3.3910   -0.8815    2.0381 H   0  0  0  0  0  0  0  0  0  0  0  0
    5.1676   -2.1444    1.1900 H   0  0  0  0  0  0  0  0  0  0  0  0
    7.3983   -2.4388    0.1668 H   0  0  0  0  0  0  0  0  0  0  0  0
    8.9769   -0.7124   -1.8122 H   0  0  0  0  0  0  0  0  0  0  0  0
    8.2667   -1.2949   -3.3192 H   0  0  0  0  0  0  0  0  0  0  0  0
    8.3036   -3.5336   -2.2443 H   0  0  0  0  0  0  0  0  0  0  0  0
   10.3931   -2.6160   -3.4721 H   0  0  0  0  0  0  0  0  0  0  0  0
   10.4532   -4.0810   -2.4835 H   0  0  0  0  0  0  0  0  0  0  0  0
   11.2280   -2.7978   -0.5228 H   0  0  0  0  0  0  0  0  0  0  0  0
   11.1609   -1.2882   -1.4278 H   0  0  0  0  0  0  0  0  0  0  0  0
   12.9446   -4.4568   -0.9263 H   0  0  0  0  0  0  0  0  0  0  0  0
   15.2479   -4.9814   -1.7565 H   0  0  0  0  0  0  0  0  0  0  0  0
   15.2204   -1.3675   -4.0680 H   0  0  0  0  0  0  0  0  0  0  0  0
   13.3745    0.0855   -4.1115 H   0  0  0  0  0  0  0  0  0  0  0  0
   12.5532    0.2355   -2.5431 H   0  0  0  0  0  0  0  0  0  0  0  0
   11.7691   -0.6369   -3.8689 H   0  0  0  0  0  0  0  0  0  0  0  0
    6.1304   -0.2364   -3.3012 H   0  0  0  0  0  0  0  0  0  0  0  0
    3.8773    0.0691   -2.2801 H   0  0  0  0  0  0  0  0  0  0  0  0
  1  2  1  0
  1 22  1  0
  1 23  1  0
  1 24  1  0
  2  3  1  0
  2 25  1  0
  2 26  1  0
  3  4  1  0
  4  5  2  0
  4 21  1  0
  5  6  1  0
  5 27  1  0
  6  7  2  0
  6 28  1  0
  7  8  1  0
  7 20  1  0
  8  9  1  0
  8 29  1  0
  8 30  1  0
  9 10  1  0
  9 31  1  0
 10 11  1  0
 10 32  1  0
 10 33  1  0
 11 12  1  0
 11 34  1  0
 11 35  1  0
 12 13  2  0
 12 18  1  0
 13 14  1  0
 13 36  1  0
 14 15  2  0
 14 37  1  0
 15 16  1  0
 15 17  1  0
 17 18  2  0
 17 38  1  0
 18 19  1  0
 19 39  1  0
 19 40  1  0
 19 41  1  0
 20 21  2  0
 20 42  1  0
 21 43  1  0
M  END

