
     RDKit          3D

 59 60  0  0  0  0  0  0  0  0999 V2000
   -0.3825   -2.2395   -2.6281 C   0  0  0  0  0  0  0  0  0  0  0  0
    0.4537   -1.7361   -1.5796 O   0  0  0  0  0  0  0  0  0  0  0  0
    1.7876   -1.9223   -1.5659 C   0  0  0  0  0  0  0  0  0  0  0  0
    2.5608   -0.8109   -1.1753 C   0  0  0  0  0  0  0  0  0  0  0  0
    3.9425   -0.8920   -1.0763 C   0  0  0  0  0  0  0  0  0  0  0  0
    4.5658   -2.1096   -1.3631 C   0  0  0  0  0  0  0  0  0  0  0  0
    6.0299   -2.2146   -1.2609 N   0  0  0  0  0  0  0  0  0  0  0  0
    6.6411   -1.2268   -0.8820 O   0  0  0  0  0  0  0  0  0  0  0  0
    6.5448   -3.2802   -1.5628 O   0  0  0  0  0  0  0  0  0  0  0  0
    3.8294   -3.2360   -1.7203 C   0  0  0  0  0  0  0  0  0  0  0  0
    2.4369   -3.1572   -1.8353 C   0  0  0  0  0  0  0  0  0  0  0  0
    1.6689   -4.3234   -2.1243 N   0  0  0  0  0  0  0  0  0  0  0  0
    1.0757   -5.0684   -1.0286 C   0  0  0  0  0  0  0  0  0  0  0  0
    2.0969   -5.9096   -0.2446 C   0  0  0  0  0  0  0  0  0  0  0  0
    3.0943   -6.3635   -0.7861 O   0  0  0  0  0  0  0  0  0  0  0  0
    1.7657   -6.1416    1.0519 N   0  0  0  0  0  0  0  0  0  0  0  0
    2.5679   -6.9559    1.9521 C   0  0  0  0  0  0  0  0  0  0  0  0
    3.2599   -6.1371    3.0468 C   0  0  0  0  0  0  0  0  0  0  0  0
    4.0783   -6.9990    3.9998 C   0  0  0  0  0  0  0  0  0  0  0  0
    5.0565   -7.6890    3.2617 O   0  0  0  0  0  0  0  0  0  0  0  0
    5.8675   -8.6080    3.9923 C   0  0  1  0  0  0  0  0  0  0  0  0
    6.4808   -9.5755    2.9748 C   0  0  0  0  0  0  0  0  0  0  0  0
    7.4950   -8.8817    2.0551 C   0  0  0  0  0  0  0  0  0  0  0  0
    8.5854   -8.1635    2.8616 C   0  0  0  0  0  0  0  0  0  0  0  0
    7.9786   -7.1884    3.8797 C   0  0  0  0  0  0  0  0  0  0  0  0
    6.9659   -7.8892    4.7955 C   0  0  0  0  0  0  0  0  0  0  0  0
    1.5815   -4.9365   -3.7077 S   0  0  1  0  0  0  0  0  0  0  0  0
    3.0216   -5.9793   -3.9561 C   0  0  0  0  0  0  0  0  0  0  0  0
    0.3973   -5.8010   -3.7314 O   0  0  0  0  0  0  0  0  0  0  0  0
    1.7042   -3.7867   -4.6068 O   0  0  0  0  0  0  0  0  0  0  0  0
   -1.2319   -1.5448   -2.6914 H   0  0  0  0  0  0  0  0  0  0  0  0
   -0.7592   -3.2481   -2.4020 H   0  0  0  0  0  0  0  0  0  0  0  0
    0.1534   -2.2696   -3.5868 H   0  0  0  0  0  0  0  0  0  0  0  0
    2.0333    0.1219   -0.9685 H   0  0  0  0  0  0  0  0  0  0  0  0
    4.5497   -0.0335   -0.7907 H   0  0  0  0  0  0  0  0  0  0  0  0
    4.3379   -4.1871   -1.8694 H   0  0  0  0  0  0  0  0  0  0  0  0
    0.3244   -5.7543   -1.4516 H   0  0  0  0  0  0  0  0  0  0  0  0
    0.5385   -4.3677   -0.3658 H   0  0  0  0  0  0  0  0  0  0  0  0
    0.9488   -5.6740    1.4289 H   0  0  0  0  0  0  0  0  0  0  0  0
    3.3222   -7.4641    1.3388 H   0  0  0  0  0  0  0  0  0  0  0  0
    1.9279   -7.7327    2.4084 H   0  0  0  0  0  0  0  0  0  0  0  0
    2.5113   -5.5805    3.6391 H   0  0  0  0  0  0  0  0  0  0  0  0
    3.9194   -5.3897    2.5753 H   0  0  0  0  0  0  0  0  0  0  0  0
    3.4169   -7.7208    4.5277 H   0  0  0  0  0  0  0  0  0  0  0  0
    4.5310   -6.3549    4.7794 H   0  0  0  0  0  0  0  0  0  0  0  0
    5.2170   -9.1752    4.6892 H   0  0  0  0  0  0  0  0  0  0  0  0
    5.6702  -10.0357    2.3868 H   0  0  0  0  0  0  0  0  0  0  0  0
    6.9772  -10.3891    3.5332 H   0  0  0  0  0  0  0  0  0  0  0  0
    6.9622   -8.1492    1.4258 H   0  0  0  0  0  0  0  0  0  0  0  0
    7.9451   -9.6189    1.3694 H   0  0  0  0  0  0  0  0  0  0  0  0
    9.2721   -7.6288    2.1842 H   0  0  0  0  0  0  0  0  0  0  0  0
    9.1984   -8.9132    3.3971 H   0  0  0  0  0  0  0  0  0  0  0  0
    7.4675   -6.3726    3.3402 H   0  0  0  0  0  0  0  0  0  0  0  0
    8.7716   -6.7180    4.4848 H   0  0  0  0  0  0  0  0  0  0  0  0
    6.5164   -7.1710    5.5017 H   0  0  0  0  0  0  0  0  0  0  0  0
    7.4800   -8.6445    5.4171 H   0  0  0  0  0  0  0  0  0  0  0  0
    3.0827   -6.6867   -3.1206 H   0  0  0  0  0  0  0  0  0  0  0  0
    3.9118   -5.3398   -3.9959 H   0  0  0  0  0  0  0  0  0  0  0  0
    2.8616   -6.4806   -4.9206 H   0  0  0  0  0  0  0  0  0  0  0  0
  1  2  1  0
  1 31  1  0
  1 32  1  0
  1 33  1  0
  2  3  1  0
  3  4  2  0
  3 11  1  0
  4  5  1  0
  4 34  1  0
  5  6  2  0
  5 35  1  0
  6  7  1  0
  6 10  1  0
  7  8  2  0
  7  9  1  0
 10 11  2  0
 10 36  1  0
 11 12  1  0
 12 13  1  0
 27 12  1  1
 13 14  1  0
 13 37  1  0
 13 38  1  0
 14 15  2  0
 14 16  1  0
 16 17  1  0
 16 39  1  0
 17 18  1  0
 17 40  1  0
 17 41  1  0
 18 19  1  0
 18 42  1  0
 18 43  1  0
 19 20  1  0
 19 44  1  0
 19 45  1  0
 20 21  1  0
 21 22  1  0
 21 26  1  0
 21 46  1  1
 22 23  1  0
 22 47  1  0
 22 48  1  0
 23 24  1  0
 23 49  1  0
 23 50  1  0
 24 25  1  0
 24 51  1  0
 24 52  1  0
 25 26  1  0
 25 53  1  0
 25 54  1  0
 26 55  1  0
 26 56  1  0
 27 28  1  0
 27 29  2  0
 27 30  2  0
 28 57  1  0
 28 58  1  0
 28 59  1  0
M  CHG  2   7   1   9  -1
M  END

