
     RDKit          3D

 41 42  0  0  0  0  0  0  0  0999 V2000
    5.5034   -0.3993   -2.7782 C   0  0  0  0  0  0  0  0  0  0  0  0
    5.0527   -0.2479   -1.3256 C   0  0  0  0  0  0  0  0  0  0  0  0
    5.3269    1.1404   -0.7494 C   0  0  0  0  0  0  0  0  0  0  0  0
    4.8454    1.2482    0.6255 N   0  0  0  0  0  0  0  0  0  0  0  0
    5.1441    2.5052    1.2904 C   0  0  1  0  0  0  0  0  0  0  0  0
    4.5057    3.7371    0.6340 C   0  0  0  0  0  0  0  0  0  0  0  0
    4.4044    4.7160    1.6527 O   0  0  0  0  0  0  0  0  0  0  0  0
    4.5720    4.1221    2.9361 C   0  0  0  0  0  0  0  0  0  0  0  0
    4.5324    2.6034    2.7068 C   0  0  2  0  0  0  0  0  0  0  0  0
    5.3058    1.8188    3.7583 C   0  0  0  0  0  0  0  0  0  0  0  0
    6.3855    2.2445    4.1771 O   0  0  0  0  0  0  0  0  0  0  0  0
    4.7881    0.6432    4.2206 N   0  0  0  0  0  0  0  0  0  0  0  0
    3.6459   -0.0776    3.6684 C   0  0  0  0  0  0  0  0  0  0  0  0
    5.5118   -0.0168    5.3206 C   0  0  0  0  0  0  0  0  0  0  0  0
    6.6953   -0.8145    4.8643 C   0  0  0  0  0  0  0  0  0  0  0  0
    6.7810   -2.1301    4.8125 N   0  0  0  0  0  0  0  0  0  0  0  0
    8.0292   -2.3970    4.3072 C   0  0  0  0  0  0  0  0  0  0  0  0
    8.7045   -1.2224    4.0454 C   0  0  0  0  0  0  0  0  0  0  0  0
    7.8391   -0.2202    4.4115 N   0  0  0  0  0  0  0  0  0  0  0  0
    7.9353    0.7900    4.3203 H   0  0  0  0  0  0  0  0  0  0  0  0
    5.2936   -1.4113   -3.1583 H   0  0  0  0  0  0  0  0  0  0  0  0
    6.5864   -0.2222   -2.8866 H   0  0  0  0  0  0  0  0  0  0  0  0
    4.9837    0.3165   -3.4368 H   0  0  0  0  0  0  0  0  0  0  0  0
    5.5634   -1.0038   -0.7000 H   0  0  0  0  0  0  0  0  0  0  0  0
    3.9728   -0.4546   -1.2344 H   0  0  0  0  0  0  0  0  0  0  0  0
    4.8068    1.8942   -1.3657 H   0  0  0  0  0  0  0  0  0  0  0  0
    6.4140    1.3693   -0.8365 H   0  0  0  0  0  0  0  0  0  0  0  0
    5.2546    0.4851    1.1660 H   0  0  0  0  0  0  0  0  0  0  0  0
    6.2376    2.6888    1.3843 H   0  0  0  0  0  0  0  0  0  0  0  0
    3.5060    3.4639    0.2385 H   0  0  0  0  0  0  0  0  0  0  0  0
    5.1058    4.1454   -0.1956 H   0  0  0  0  0  0  0  0  0  0  0  0
    3.7657    4.4637    3.6070 H   0  0  0  0  0  0  0  0  0  0  0  0
    5.5407    4.4145    3.3755 H   0  0  0  0  0  0  0  0  0  0  0  0
    3.4872    2.2732    2.6398 H   0  0  0  0  0  0  0  0  0  0  0  0
    3.4239    0.2468    2.6452 H   0  0  0  0  0  0  0  0  0  0  0  0
    2.7426    0.0458    4.2923 H   0  0  0  0  0  0  0  0  0  0  0  0
    3.8905   -1.1505    3.6276 H   0  0  0  0  0  0  0  0  0  0  0  0
    4.8201   -0.7003    5.8290 H   0  0  0  0  0  0  0  0  0  0  0  0
    5.8275    0.7613    6.0307 H   0  0  0  0  0  0  0  0  0  0  0  0
    8.3833   -3.4169    4.1604 H   0  0  0  0  0  0  0  0  0  0  0  0
    9.6970   -1.0224    3.6491 H   0  0  0  0  0  0  0  0  0  0  0  0
  1  2  1  0
  1 21  1  0
  1 22  1  0
  1 23  1  0
  2  3  1  0
  2 24  1  0
  2 25  1  0
  3  4  1  0
  3 26  1  0
  3 27  1  0
  4  5  1  0
  4 28  1  0
  5  6  1  0
  5  9  1  0
  5 29  1  1
  6  7  1  0
  6 30  1  0
  6 31  1  0
  7  8  1  0
  8  9  1  0
  8 32  1  0
  8 33  1  0
  9 10  1  0
  9 34  1  6
 10 11  2  0
 10 12  1  0
 12 13  1  0
 12 14  1  0
 13 35  1  0
 13 36  1  0
 13 37  1  0
 14 15  1  0
 14 38  1  0
 14 39  1  0
 15 16  2  0
 15 19  1  0
 16 17  1  0
 17 18  2  0
 17 40  1  0
 18 19  1  0
 18 41  1  0
 19 20  1  0
M  END

