
     RDKit          3D

 39 39  0  0  0  0  0  0  0  0999 V2000
    9.1300   -1.3913   -3.3127 C   0  0  0  0  0  0  0  0  0  0  0  0
    7.7783   -0.6902   -3.1800 C   0  0  0  0  0  0  0  0  0  0  0  0
    7.4155   -0.4161   -1.7182 C   0  0  0  0  0  0  0  0  0  0  0  0
    6.1349    0.2787   -1.5543 N   0  0  0  0  0  0  0  0  0  0  0  0
    6.0306    1.6383   -1.4839 C   0  0  0  0  0  0  0  0  0  0  0  0
    4.6892    1.9718   -1.3678 C   0  0  0  0  0  0  0  0  0  0  0  0
    4.0014    3.7228   -1.2363 Br  0  0  0  0  0  0  0  0  0  0  0  0
    3.9470    0.7730   -1.3654 C   0  0  0  0  0  0  0  0  0  0  0  0
    4.8656   -0.2728   -1.4832 C   0  0  0  0  0  0  0  0  0  0  0  0
    4.6159   -1.7276   -1.5471 C   0  0  0  0  0  0  0  0  0  0  0  0
    5.4708   -2.5462   -1.8998 O   0  0  0  0  0  0  0  0  0  0  0  0
    3.3618   -2.1244   -1.1902 N   0  0  0  0  0  0  0  0  0  0  0  0
    2.9403   -3.4995   -1.3269 C   0  0  1  0  0  0  0  0  0  0  0  0
    3.3892   -3.9055   -2.2467 H   0  0  0  0  0  0  0  0  0  0  0  0
    3.4314   -4.3606   -0.1333 C   0  0  0  0  0  0  0  0  0  0  0  0
    3.0938   -5.8554   -0.1596 C   0  0  0  0  0  0  0  0  0  0  0  0
    3.3422   -6.7125   -1.7669 S   0  0  0  0  0  0  0  0  0  0  0  0
    5.0718   -6.2835   -2.1669 C   0  0  0  0  0  0  0  0  0  0  0  0
    1.4150   -3.5169   -1.4803 C   0  0  0  0  0  0  0  0  0  0  0  0
    0.7181   -2.6024   -1.1189 O   0  0  0  0  0  0  0  0  0  0  0  0
    0.9028   -4.6270   -2.0193 O   0  0  0  0  0  0  0  0  0  0  0  0
    9.3768   -1.5785   -4.3692 H   0  0  0  0  0  0  0  0  0  0  0  0
    9.1265   -2.3649   -2.7953 H   0  0  0  0  0  0  0  0  0  0  0  0
    9.9478   -0.7880   -2.8831 H   0  0  0  0  0  0  0  0  0  0  0  0
    6.9853   -1.3164   -3.6166 H   0  0  0  0  0  0  0  0  0  0  0  0
    7.7871    0.2638   -3.7357 H   0  0  0  0  0  0  0  0  0  0  0  0
    8.1822    0.2188   -1.2454 H   0  0  0  0  0  0  0  0  0  0  0  0
    7.3668   -1.3616   -1.1647 H   0  0  0  0  0  0  0  0  0  0  0  0
    6.9099    2.2772   -1.5129 H   0  0  0  0  0  0  0  0  0  0  0  0
    2.8639    0.6896   -1.3078 H   0  0  0  0  0  0  0  0  0  0  0  0
    2.6481   -1.4695   -0.8852 H   0  0  0  0  0  0  0  0  0  0  0  0
    3.0259   -3.9285    0.7976 H   0  0  0  0  0  0  0  0  0  0  0  0
    4.5225   -4.2244   -0.0962 H   0  0  0  0  0  0  0  0  0  0  0  0
    2.0298   -6.0350    0.0602 H   0  0  0  0  0  0  0  0  0  0  0  0
    3.6740   -6.3784    0.6172 H   0  0  0  0  0  0  0  0  0  0  0  0
    5.2827   -6.7466   -3.1413 H   0  0  0  0  0  0  0  0  0  0  0  0
    5.7523   -6.7144   -1.4172 H   0  0  0  0  0  0  0  0  0  0  0  0
    5.2329   -5.1975   -2.2391 H   0  0  0  0  0  0  0  0  0  0  0  0
    1.6169   -5.2488   -2.2849 H   0  0  0  0  0  0  0  0  0  0  0  0
  1  2  1  0
  1 22  1  0
  1 23  1  0
  1 24  1  0
  2  3  1  0
  2 25  1  0
  2 26  1  0
  3  4  1  0
  3 27  1  0
  3 28  1  0
  4  5  1  0
  4  9  1  0
  5  6  2  0
  5 29  1  0
  6  7  1  0
  6  8  1  0
  8  9  2  0
  8 30  1  0
  9 10  1  0
 10 11  2  0
 10 12  1  0
 12 13  1  0
 12 31  1  0
 13 14  1  6
 13 15  1  0
 13 19  1  0
 15 16  1  0
 15 32  1  0
 15 33  1  0
 16 17  1  0
 16 34  1  0
 16 35  1  0
 17 18  1  0
 18 36  1  0
 18 37  1  0
 18 38  1  0
 19 20  2  0
 19 21  1  0
 21 39  1  0
M  END

