
     RDKit          3D

 55 57  0  0  0  0  0  0  0  0999 V2000
    3.6132    4.9568   -0.2904 C   0  0  0  0  0  0  0  0  0  0  0  0
    4.2012    3.5803   -0.4781 C   0  0  0  0  0  0  0  0  0  0  0  0
    3.7581    2.7340   -1.5095 C   0  0  0  0  0  0  0  0  0  0  0  0
    4.2877    1.4543   -1.6734 C   0  0  0  0  0  0  0  0  0  0  0  0
    5.2840    1.0141   -0.7978 C   0  0  0  0  0  0  0  0  0  0  0  0
    5.9513   -0.6397   -0.9880 S   0  0  1  0  0  0  0  0  0  0  0  0
    6.7953   -0.8982    0.1857 O   0  0  0  0  0  0  0  0  0  0  0  0
    4.8590   -1.5396   -1.3666 O   0  0  0  0  0  0  0  0  0  0  0  0
    6.9066   -0.5297   -2.3721 N   0  0  0  0  0  0  0  0  0  0  0  0
    8.3456   -0.2384   -2.2648 C   0  0  1  0  0  0  0  0  0  0  0  0
    9.2040   -1.4802   -1.9569 C   0  0  0  0  0  0  0  0  0  0  0  0
    9.2787   -2.4303   -3.1537 C   0  0  0  0  0  0  0  0  0  0  0  0
    9.7282   -1.7386   -4.3641 N   0  0  0  0  0  0  0  0  0  0  0  0
   10.7405   -2.2988   -5.1029 C   0  0  0  0  0  0  0  0  0  0  0  0
   11.3481   -3.2909   -4.7338 O   0  0  0  0  0  0  0  0  0  0  0  0
   11.1105   -1.6169   -6.4421 C   0  0  1  0  0  0  0  0  0  0  0  0
   12.3143   -2.2931   -7.0815 C   0  0  0  0  0  0  0  0  0  0  0  0
    9.9495   -1.7085   -7.2663 O   0  0  0  0  0  0  0  0  0  0  0  0
    9.7665   -0.8652   -8.3283 C   0  0  0  0  0  0  0  0  0  0  0  0
   10.6031    0.2047   -8.6673 C   0  0  0  0  0  0  0  0  0  0  0  0
   10.2915    1.0192   -9.7659 C   0  0  0  0  0  0  0  0  0  0  0  0
    9.1522    0.7777  -10.5377 C   0  0  0  0  0  0  0  0  0  0  0  0
    8.8061    1.5359  -11.6147 O   0  0  0  0  0  0  0  0  0  0  0  0
    8.3169   -0.2995  -10.1977 C   0  0  0  0  0  0  0  0  0  0  0  0
    8.6223   -1.1079   -9.1095 C   0  0  0  0  0  0  0  0  0  0  0  0
    8.9341   -0.5688   -4.7290 C   0  0  0  0  0  0  0  0  0  0  0  0
    8.8417    0.4227   -3.5610 C   0  0  0  0  0  0  0  0  0  0  0  0
    5.7378    1.8269    0.2436 C   0  0  0  0  0  0  0  0  0  0  0  0
    5.1958    3.1046    0.3925 C   0  0  0  0  0  0  0  0  0  0  0  0
    2.9733    5.2445   -1.1371 H   0  0  0  0  0  0  0  0  0  0  0  0
    4.4022    5.7184   -0.1832 H   0  0  0  0  0  0  0  0  0  0  0  0
    2.9974    5.0009    0.6242 H   0  0  0  0  0  0  0  0  0  0  0  0
    2.9791    3.0823   -2.1931 H   0  0  0  0  0  0  0  0  0  0  0  0
    3.9280    0.7969   -2.4671 H   0  0  0  0  0  0  0  0  0  0  0  0
    6.6341   -1.2884   -2.9956 H   0  0  0  0  0  0  0  0  0  0  0  0
    8.4484    0.4802   -1.4379 H   0  0  0  0  0  0  0  0  0  0  0  0
    8.7949   -2.0000   -1.0782 H   0  0  0  0  0  0  0  0  0  0  0  0
   10.2239   -1.1484   -1.6985 H   0  0  0  0  0  0  0  0  0  0  0  0
    8.2851   -2.8831   -3.3467 H   0  0  0  0  0  0  0  0  0  0  0  0
    9.9761   -3.2552   -2.9678 H   0  0  0  0  0  0  0  0  0  0  0  0
   11.3390   -0.5542   -6.2358 H   0  0  0  0  0  0  0  0  0  0  0  0
   12.1065   -3.3612   -7.2302 H   0  0  0  0  0  0  0  0  0  0  0  0
   13.1915   -2.2104   -6.4241 H   0  0  0  0  0  0  0  0  0  0  0  0
   12.5498   -1.8305   -8.0506 H   0  0  0  0  0  0  0  0  0  0  0  0
   11.5072    0.4204   -8.0977 H   0  0  0  0  0  0  0  0  0  0  0  0
   10.9570    1.8502  -10.0210 H   0  0  0  0  0  0  0  0  0  0  0  0
    9.4639    2.2312  -11.7435 H   0  0  0  0  0  0  0  0  0  0  0  0
    7.4290   -0.4875  -10.8047 H   0  0  0  0  0  0  0  0  0  0  0  0
    7.9800   -1.9482   -8.8380 H   0  0  0  0  0  0  0  0  0  0  0  0
    7.9198   -0.8926   -5.0351 H   0  0  0  0  0  0  0  0  0  0  0  0
    9.3639   -0.0689   -5.6021 H   0  0  0  0  0  0  0  0  0  0  0  0
    8.1746    1.2547   -3.8356 H   0  0  0  0  0  0  0  0  0  0  0  0
    9.8445    0.8427   -3.3740 H   0  0  0  0  0  0  0  0  0  0  0  0
    6.4979    1.4486    0.9291 H   0  0  0  0  0  0  0  0  0  0  0  0
    5.5497    3.7434    1.2068 H   0  0  0  0  0  0  0  0  0  0  0  0
  1  2  1  0
  1 30  1  0
  1 31  1  0
  1 32  1  0
  2  3  2  0
  2 29  1  0
  3  4  1  0
  3 33  1  0
  4  5  2  0
  4 34  1  0
  5  6  1  0
  5 28  1  0
  6  7  2  0
  6  8  2  0
  6  9  1  6
  9 10  1  0
  9 35  1  0
 10 11  1  0
 10 27  1  0
 10 36  1  1
 11 12  1  0
 11 37  1  0
 11 38  1  0
 12 13  1  0
 12 39  1  0
 12 40  1  0
 13 14  1  0
 13 26  1  0
 14 15  2  0
 14 16  1  0
 16 17  1  0
 16 18  1  0
 16 41  1  1
 17 42  1  0
 17 43  1  0
 17 44  1  0
 18 19  1  0
 19 20  2  0
 19 25  1  0
 20 21  1  0
 20 45  1  0
 21 22  2  0
 21 46  1  0
 22 23  1  0
 22 24  1  0
 23 47  1  0
 24 25  2  0
 24 48  1  0
 25 49  1  0
 26 27  1  0
 26 50  1  0
 26 51  1  0
 27 52  1  0
 27 53  1  0
 28 29  2  0
 28 54  1  0
 29 55  1  0
M  END

