
     RDKit          3D

 40 41  0  0  0  0  0  0  0  0999 V2000
    1.8271   -0.6368   -1.0068 C   0  0  0  0  0  0  0  0  0  0  0  0
    2.8712    0.1430   -0.1910 C   0  0  0  0  0  0  0  0  0  0  0  0
    3.1939    1.4977   -0.7538 C   0  0  0  0  0  0  0  0  0  0  0  0
    2.6512    2.6059   -0.2515 N   0  0  0  0  0  0  0  0  0  0  0  0
    3.1133    3.6160   -0.9984 N   0  0  0  0  0  0  0  0  0  0  0  0
    2.6985    4.9869   -0.6458 C   0  0  1  0  0  0  0  0  0  0  0  0
    1.1606    5.0963   -0.7216 C   0  0  0  0  0  0  0  0  0  0  0  0
    3.2147    5.3373    0.7666 C   0  0  0  0  0  0  0  0  0  0  0  0
    3.2930    5.9279   -1.6200 C   0  0  0  0  0  0  0  0  0  0  0  0
    3.7273    6.7180   -2.3467 N   0  0  0  0  0  0  0  0  0  0  0  0
    3.9605    3.1978   -1.9885 C   0  0  0  0  0  0  0  0  0  0  0  0
    4.0346    1.8168   -1.8619 C   0  0  0  0  0  0  0  0  0  0  0  0
    4.7515    0.8807   -2.6062 N   0  0  0  0  0  0  0  0  0  0  0  0
    5.5854    1.0918   -3.6725 C   0  0  0  0  0  0  0  0  0  0  0  0
    5.7652    2.3439   -4.1107 N   0  0  0  0  0  0  0  0  0  0  0  0
    6.5895    2.4779   -5.1565 C   0  0  0  0  0  0  0  0  0  0  0  0
    7.2219    1.4058   -5.7577 C   0  0  0  0  0  0  0  0  0  0  0  0
    8.2954    1.6170   -7.1263 Cl  0  0  0  0  0  0  0  0  0  0  0  0
    6.9705    0.1056   -5.2197 C   0  0  0  0  0  0  0  0  0  0  0  0
    7.5501   -0.9944   -5.7590 N   0  0  0  0  0  0  0  0  0  0  0  0
    7.3812   -2.3442   -5.2704 C   0  0  0  0  0  0  0  0  0  0  0  0
    6.1499   -0.0203   -4.1760 N   0  0  0  0  0  0  0  0  0  0  0  0
    1.6250   -1.6211   -0.5544 H   0  0  0  0  0  0  0  0  0  0  0  0
    2.1628   -0.8052   -2.0432 H   0  0  0  0  0  0  0  0  0  0  0  0
    0.8779   -0.0810   -1.0548 H   0  0  0  0  0  0  0  0  0  0  0  0
    3.7982   -0.4538   -0.1080 H   0  0  0  0  0  0  0  0  0  0  0  0
    2.5065    0.2863    0.8378 H   0  0  0  0  0  0  0  0  0  0  0  0
    0.7223    4.3692   -0.0251 H   0  0  0  0  0  0  0  0  0  0  0  0
    0.8070    4.8717   -1.7381 H   0  0  0  0  0  0  0  0  0  0  0  0
    0.8354    6.1104   -0.4475 H   0  0  0  0  0  0  0  0  0  0  0  0
    2.7967    4.6159    1.4816 H   0  0  0  0  0  0  0  0  0  0  0  0
    2.9044    6.3542    1.0475 H   0  0  0  0  0  0  0  0  0  0  0  0
    4.3120    5.2778    0.8025 H   0  0  0  0  0  0  0  0  0  0  0  0
    4.4385    3.8661   -2.6942 H   0  0  0  0  0  0  0  0  0  0  0  0
    4.6765   -0.0902   -2.3300 H   0  0  0  0  0  0  0  0  0  0  0  0
    6.7575    3.4910   -5.5382 H   0  0  0  0  0  0  0  0  0  0  0  0
    8.1812   -0.8270   -6.5332 H   0  0  0  0  0  0  0  0  0  0  0  0
    6.5862   -2.3444   -4.5151 H   0  0  0  0  0  0  0  0  0  0  0  0
    8.3047   -2.7317   -4.8038 H   0  0  0  0  0  0  0  0  0  0  0  0
    7.0957   -3.0257   -6.0890 H   0  0  0  0  0  0  0  0  0  0  0  0
  1  2  1  0
  1 23  1  0
  1 24  1  0
  1 25  1  0
  2  3  1  0
  2 26  1  0
  2 27  1  0
  3  4  2  0
  3 12  1  0
  4  5  1  0
  5  6  1  0
  5 11  1  0
  6  7  1  0
  6  8  1  0
  6  9  1  6
  7 28  1  0
  7 29  1  0
  7 30  1  0
  8 31  1  0
  8 32  1  0
  8 33  1  0
  9 10  3  0
 11 12  2  0
 11 34  1  0
 12 13  1  0
 13 14  1  0
 13 35  1  0
 14 15  2  0
 14 22  1  0
 15 16  1  0
 16 17  2  0
 16 36  1  0
 17 18  1  0
 17 19  1  0
 19 20  1  0
 19 22  2  0
 20 21  1  0
 20 37  1  0
 21 38  1  0
 21 39  1  0
 21 40  1  0
M  END

