
     RDKit          3D

 32 34  0  0  0  0  0  0  0  0999 V2000
    4.8014   -2.4770    6.2989 C   0  0  0  0  0  0  0  0  0  0  0  0
    4.6204   -1.9729    4.9552 N   0  0  0  0  0  0  0  0  0  0  0  0
    5.4138   -1.0174    4.4211 C   0  0  0  0  0  0  0  0  0  0  0  0
    6.6824   -0.2097    5.2755 S   0  0  0  0  0  0  0  0  0  0  0  0
    7.0598    0.7898    3.8204 N   0  0  0  0  0  0  0  0  0  0  0  0
    6.2860    0.4680    2.8849 N   0  0  0  0  0  0  0  0  0  0  0  0
    5.3600   -0.5008    3.1121 C   0  0  0  0  0  0  0  0  0  0  0  0
    4.3522   -0.8439    2.0519 C   0  0  0  0  0  0  0  0  0  0  0  0
    4.6424   -2.0323    1.2384 N   0  0  0  0  0  0  0  0  0  0  0  0
    5.1870   -1.9577   -0.0629 C   0  0  0  0  0  0  0  0  0  0  0  0
    5.5062   -0.9354   -0.6124 O   0  0  0  0  0  0  0  0  0  0  0  0
    5.2655   -3.3654   -0.5912 C   0  0  1  0  0  0  0  0  0  0  0  0
    4.7273   -4.2532    0.5089 C   0  0  1  0  0  0  0  0  0  0  0  0
    4.3721   -3.3312    1.6380 C   0  0  0  0  0  0  0  0  0  0  0  0
    3.9279   -3.6463    2.7288 O   0  0  0  0  0  0  0  0  0  0  0  0
    3.9534   -4.1079   -0.7978 C   0  0  2  0  0  0  0  0  0  0  0  0
    4.0367   -5.3107   -1.7241 C   0  0  0  0  0  0  0  0  0  0  0  0
    2.6173   -3.3896   -0.8747 C   0  0  0  0  0  0  0  0  0  0  0  0
    3.9922   -3.1834    6.5310 H   0  0  0  0  0  0  0  0  0  0  0  0
    4.7580   -1.6546    7.0325 H   0  0  0  0  0  0  0  0  0  0  0  0
    5.7689   -2.9990    6.4332 H   0  0  0  0  0  0  0  0  0  0  0  0
    4.1603   -2.5881    4.2766 H   0  0  0  0  0  0  0  0  0  0  0  0
    4.3066   -0.0029    1.3477 H   0  0  0  0  0  0  0  0  0  0  0  0
    3.3581   -0.9936    2.5023 H   0  0  0  0  0  0  0  0  0  0  0  0
    6.1286   -3.6132   -1.2129 H   0  0  0  0  0  0  0  0  0  0  0  0
    5.1473   -5.2242    0.7801 H   0  0  0  0  0  0  0  0  0  0  0  0
    5.0109   -5.8181   -1.6543 H   0  0  0  0  0  0  0  0  0  0  0  0
    3.8893   -5.0005   -2.7713 H   0  0  0  0  0  0  0  0  0  0  0  0
    3.2520   -6.0440   -1.4764 H   0  0  0  0  0  0  0  0  0  0  0  0
    2.5479   -2.5201   -0.2077 H   0  0  0  0  0  0  0  0  0  0  0  0
    1.8006   -4.0810   -0.6111 H   0  0  0  0  0  0  0  0  0  0  0  0
    2.4397   -3.0348   -1.9027 H   0  0  0  0  0  0  0  0  0  0  0  0
  1  2  1  0
  1 19  1  0
  1 20  1  0
  1 21  1  0
  2  3  1  0
  2 22  1  0
  3  4  1  0
  3  7  2  0
  4  5  1  0
  5  6  2  0
  6  7  1  0
  7  8  1  0
  8  9  1  0
  8 23  1  0
  8 24  1  0
  9 10  1  0
  9 14  1  0
 10 11  2  0
 10 12  1  0
 12 13  1  0
 12 16  1  0
 12 25  1  6
 13 14  1  0
 13 16  1  0
 13 26  1  1
 14 15  2  0
 16 17  1  6
 16 18  1  0
 17 27  1  0
 17 28  1  0
 17 29  1  0
 18 30  1  0
 18 31  1  0
 18 32  1  0
M  END

