
     RDKit          3D

 55 56  0  0  0  0  0  0  0  0999 V2000
    0.5509    3.9170    6.4276 C   0  0  0  0  0  0  0  0  0  0  0  0
    2.0799    3.9504    6.4420 C   0  0  0  0  0  0  0  0  0  0  0  0
    2.7267    2.6983    5.8415 C   0  0  0  0  0  0  0  0  0  0  0  0
    4.2579    2.7239    5.8522 C   0  0  0  0  0  0  0  0  0  0  0  0
    4.9042    1.4717    5.2525 C   0  0  0  0  0  0  0  0  0  0  0  0
    6.4358    1.4987    5.2619 C   0  0  0  0  0  0  0  0  0  0  0  0
    7.0737    0.2410    4.6588 C   0  0  0  0  0  0  0  0  0  0  0  0
    8.6059    0.2590    4.5775 C   0  0  0  0  0  0  0  0  0  0  0  0
    9.3086    0.2272    5.9426 C   0  0  0  0  0  0  0  0  0  0  0  0
   10.7580    0.1854    5.8526 N   0  0  0  0  0  0  0  0  0  0  0  0
   11.5204   -0.9529    5.6987 C   0  0  0  0  0  0  0  0  0  0  0  0
   12.8463   -0.5871    5.5577 C   0  0  0  0  0  0  0  0  0  0  0  0
   12.8932    0.8435    5.6294 C   0  0  0  0  0  0  0  0  0  0  0  0
   11.5899    1.2789    5.8079 C   0  0  0  0  0  0  0  0  0  0  0  0
   14.1188    1.7145    5.4913 C   0  0  2  0  0  0  0  0  0  0  0  0
   14.3805    1.9665    4.0653 N   0  0  0  0  0  0  0  0  0  0  0  0
   15.2752    3.0758    3.7940 C   0  0  0  0  0  0  0  0  0  0  0  0
   15.4034    1.1367    6.1673 C   0  0  0  0  0  0  0  0  0  0  0  0
   15.1795    0.0574    7.2396 C   0  0  0  0  0  0  0  0  0  0  0  0
   14.9788   -1.3672    6.6839 C   0  0  0  0  0  0  0  0  0  0  0  0
   14.0634   -1.4555    5.4417 C   0  0  0  0  0  0  0  0  0  0  0  0
    0.1209    4.8316    6.8662 H   0  0  0  0  0  0  0  0  0  0  0  0
    0.1631    3.0588    7.0020 H   0  0  0  0  0  0  0  0  0  0  0  0
    0.1614    3.8264    5.3996 H   0  0  0  0  0  0  0  0  0  0  0  0
    2.4363    4.0799    7.4803 H   0  0  0  0  0  0  0  0  0  0  0  0
    2.4347    4.8410    5.8917 H   0  0  0  0  0  0  0  0  0  0  0  0
    2.3711    2.5676    4.8022 H   0  0  0  0  0  0  0  0  0  0  0  0
    2.3727    1.8062    6.3917 H   0  0  0  0  0  0  0  0  0  0  0  0
    4.6128    2.8553    6.8916 H   0  0  0  0  0  0  0  0  0  0  0  0
    4.6114    3.6158    5.3017 H   0  0  0  0  0  0  0  0  0  0  0  0
    4.5492    1.3390    4.2135 H   0  0  0  0  0  0  0  0  0  0  0  0
    4.5524    0.5798    5.8037 H   0  0  0  0  0  0  0  0  0  0  0  0
    6.7823    1.6408    6.3016 H   0  0  0  0  0  0  0  0  0  0  0  0
    6.7887    2.3863    4.7042 H   0  0  0  0  0  0  0  0  0  0  0  0
    6.6735    0.0963    3.6399 H   0  0  0  0  0  0  0  0  0  0  0  0
    6.7474   -0.6462    5.2337 H   0  0  0  0  0  0  0  0  0  0  0  0
    8.9427    1.1534    4.0242 H   0  0  0  0  0  0  0  0  0  0  0  0
    8.9517   -0.6107    3.9938 H   0  0  0  0  0  0  0  0  0  0  0  0
    8.9741   -0.6555    6.5132 H   0  0  0  0  0  0  0  0  0  0  0  0
    9.0359    1.1099    6.5415 H   0  0  0  0  0  0  0  0  0  0  0  0
   11.0591   -1.9394    5.7127 H   0  0  0  0  0  0  0  0  0  0  0  0
   11.1928    2.2871    5.9209 H   0  0  0  0  0  0  0  0  0  0  0  0
   13.8833    2.6725    6.0110 H   0  0  0  0  0  0  0  0  0  0  0  0
   13.4893    2.1170    3.5963 H   0  0  0  0  0  0  0  0  0  0  0  0
   16.2975    2.8460    4.1361 H   0  0  0  0  0  0  0  0  0  0  0  0
   14.9788    4.0344    4.2809 H   0  0  0  0  0  0  0  0  0  0  0  0
   15.3321    3.2520    2.7081 H   0  0  0  0  0  0  0  0  0  0  0  0
   15.9671    1.9721    6.6137 H   0  0  0  0  0  0  0  0  0  0  0  0
   16.0462    0.7280    5.3693 H   0  0  0  0  0  0  0  0  0  0  0  0
   14.3135    0.3396    7.8616 H   0  0  0  0  0  0  0  0  0  0  0  0
   16.0457    0.0410    7.9225 H   0  0  0  0  0  0  0  0  0  0  0  0
   14.5691   -2.0029    7.4879 H   0  0  0  0  0  0  0  0  0  0  0  0
   15.9617   -1.7976    6.4207 H   0  0  0  0  0  0  0  0  0  0  0  0
   13.7778   -2.5057    5.2675 H   0  0  0  0  0  0  0  0  0  0  0  0
   14.6339   -1.1371    4.5525 H   0  0  0  0  0  0  0  0  0  0  0  0
  1  2  1  0
  1 22  1  0
  1 23  1  0
  1 24  1  0
  2  3  1  0
  2 25  1  0
  2 26  1  0
  3  4  1  0
  3 27  1  0
  3 28  1  0
  4  5  1  0
  4 29  1  0
  4 30  1  0
  5  6  1  0
  5 31  1  0
  5 32  1  0
  6  7  1  0
  6 33  1  0
  6 34  1  0
  7  8  1  0
  7 35  1  0
  7 36  1  0
  8  9  1  0
  8 37  1  0
  8 38  1  0
  9 10  1  0
  9 39  1  0
  9 40  1  0
 10 11  1  0
 10 14  1  0
 11 12  2  0
 11 41  1  0
 12 13  1  0
 12 21  1  0
 13 14  2  0
 13 15  1  0
 14 42  1  0
 15 16  1  0
 15 18  1  0
 15 43  1  1
 16 17  1  0
 16 44  1  0
 17 45  1  0
 17 46  1  0
 17 47  1  0
 18 19  1  0
 18 48  1  0
 18 49  1  0
 19 20  1  0
 19 50  1  0
 19 51  1  0
 20 21  1  0
 20 52  1  0
 20 53  1  0
 21 54  1  0
 21 55  1  0
M  END

