
     RDKit          3D

 52 53  0  0  0  0  0  0  0  0999 V2000
   10.8360   -1.9171    5.2023 C   0  0  0  0  0  0  0  0  0  0  0  0
    9.8851   -0.8490    4.6867 C   0  0  0  0  0  0  0  0  0  0  0  0
    8.9520   -0.4333    5.3542 O   0  0  0  0  0  0  0  0  0  0  0  0
   10.1445   -0.3746    3.4292 N   0  0  0  0  0  0  0  0  0  0  0  0
    9.3287    0.6668    2.8298 C   0  0  0  0  0  0  0  0  0  0  0  0
    7.9787    0.1362    2.3155 C   0  0  0  0  0  0  0  0  0  0  0  0
    7.1501    1.2006    1.7474 N   0  0  0  0  0  0  0  0  0  0  0  0
    7.5539    1.6167    0.3789 C   0  0  0  0  0  0  0  0  0  0  0  0
    7.0472    0.7576   -0.7684 C   0  0  0  0  0  0  0  0  0  0  0  0
    7.7197   -0.4043   -1.1799 C   0  0  0  0  0  0  0  0  0  0  0  0
    7.1902   -1.1984   -2.2003 C   0  0  0  0  0  0  0  0  0  0  0  0
    5.9958   -0.8412   -2.8294 C   0  0  0  0  0  0  0  0  0  0  0  0
    5.3128    0.3327   -2.4621 C   0  0  0  0  0  0  0  0  0  0  0  0
    4.0198    0.7364   -3.0906 C   0  0  0  0  0  0  0  0  0  0  0  0
    2.9631    1.1252   -2.2426 C   0  0  0  0  0  0  0  0  0  0  0  0
    1.7215    1.5070   -2.7492 C   0  0  0  0  0  0  0  0  0  0  0  0
    1.5162    1.5163   -4.1301 C   0  0  0  0  0  0  0  0  0  0  0  0
    2.5613    1.1571   -4.9819 C   0  0  0  0  0  0  0  0  0  0  0  0
    3.8194    0.7657   -4.4949 C   0  0  0  0  0  0  0  0  0  0  0  0
    4.9072    0.4327   -5.4924 C   0  0  0  0  0  0  0  0  0  0  0  0
    5.8622    1.1137   -1.4291 C   0  0  0  0  0  0  0  0  0  0  0  0
    5.6872    1.1079    1.9087 C   0  0  1  0  0  0  0  0  0  0  0  0
    5.2234    0.4903    3.2358 C   0  0  0  0  0  0  0  0  0  0  0  0
    5.0995    2.5335    1.8369 C   0  0  0  0  0  0  0  0  0  0  0  0
    3.9920    2.7768    1.4332 O   0  0  0  0  0  0  0  0  0  0  0  0
    5.9260    3.4707    2.3189 O   0  0  0  0  0  0  0  0  0  0  0  0
   11.3108   -1.5476    6.1240 H   0  0  0  0  0  0  0  0  0  0  0  0
   11.6188   -2.2058    4.4856 H   0  0  0  0  0  0  0  0  0  0  0  0
   10.2506   -2.8074    5.4769 H   0  0  0  0  0  0  0  0  0  0  0  0
   10.9160   -0.7631    2.9027 H   0  0  0  0  0  0  0  0  0  0  0  0
    9.9140    1.1341    2.0230 H   0  0  0  0  0  0  0  0  0  0  0  0
    9.1280    1.4392    3.5886 H   0  0  0  0  0  0  0  0  0  0  0  0
    7.4710   -0.2939    3.1845 H   0  0  0  0  0  0  0  0  0  0  0  0
    8.1501   -0.6936    1.6019 H   0  0  0  0  0  0  0  0  0  0  0  0
    8.6528    1.6551    0.3584 H   0  0  0  0  0  0  0  0  0  0  0  0
    7.2076    2.6506    0.2222 H   0  0  0  0  0  0  0  0  0  0  0  0
    8.6661   -0.6868   -0.7111 H   0  0  0  0  0  0  0  0  0  0  0  0
    7.7120   -2.1085   -2.5079 H   0  0  0  0  0  0  0  0  0  0  0  0
    5.5819   -1.4906   -3.6024 H   0  0  0  0  0  0  0  0  0  0  0  0
    3.1191    1.1258   -1.1610 H   0  0  0  0  0  0  0  0  0  0  0  0
    0.9209    1.7978   -2.0647 H   0  0  0  0  0  0  0  0  0  0  0  0
    0.5502    1.8148   -4.5456 H   0  0  0  0  0  0  0  0  0  0  0  0
    2.4064    1.1923   -6.0644 H   0  0  0  0  0  0  0  0  0  0  0  0
    4.7133    0.9339   -6.4526 H   0  0  0  0  0  0  0  0  0  0  0  0
    4.9608   -0.6495   -5.7019 H   0  0  0  0  0  0  0  0  0  0  0  0
    5.9023    0.7412   -5.1403 H   0  0  0  0  0  0  0  0  0  0  0  0
    5.3467    2.0318   -1.1355 H   0  0  0  0  0  0  0  0  0  0  0  0
    5.2125    0.5410    1.0893 H   0  0  0  0  0  0  0  0  0  0  0  0
    5.7057    0.9693    4.1021 H   0  0  0  0  0  0  0  0  0  0  0  0
    5.4211   -0.5901    3.2779 H   0  0  0  0  0  0  0  0  0  0  0  0
    4.1361    0.6308    3.3214 H   0  0  0  0  0  0  0  0  0  0  0  0
    6.7691    2.9913    2.4936 H   0  0  0  0  0  0  0  0  0  0  0  0
  1  2  1  0
  1 27  1  0
  1 28  1  0
  1 29  1  0
  2  3  2  0
  2  4  1  0
  4  5  1  0
  4 30  1  0
  5  6  1  0
  5 31  1  0
  5 32  1  0
  6  7  1  0
  6 33  1  0
  6 34  1  0
  7  8  1  0
  7 22  1  0
  8  9  1  0
  8 35  1  0
  8 36  1  0
  9 10  2  0
  9 21  1  0
 10 11  1  0
 10 37  1  0
 11 12  2  0
 11 38  1  0
 12 13  1  0
 12 39  1  0
 13 14  1  0
 13 21  2  0
 14 15  2  0
 14 19  1  0
 15 16  1  0
 15 40  1  0
 16 17  2  0
 16 41  1  0
 17 18  1  0
 17 42  1  0
 18 19  2  0
 18 43  1  0
 19 20  1  0
 20 44  1  0
 20 45  1  0
 20 46  1  0
 21 47  1  0
 22 23  1  0
 22 24  1  0
 22 48  1  6
 23 49  1  0
 23 50  1  0
 23 51  1  0
 24 25  2  0
 24 26  1  0
 26 52  1  0
M  END

