
     RDKit          3D

 47 50  0  0  0  0  0  0  0  0999 V2000
    3.7122   -3.7221   -0.7704 C   0  0  0  0  0  0  0  0  0  0  0  0
    3.1323   -2.3009   -0.8949 C   0  0  2  0  0  0  0  0  0  0  0  0
    3.9223   -1.4353   -1.9063 C   0  0  1  0  0  0  0  0  0  0  0  0
    3.0640   -0.3861   -2.6712 C   0  0  0  0  0  0  0  0  0  0  0  0
    3.1190    0.8664   -1.9202 N   0  0  0  0  0  0  0  0  0  0  0  0
    4.4883    0.9008   -1.4104 C   0  0  0  0  0  0  0  0  0  0  0  0
    4.8792   -0.5544   -1.0267 C   0  0  1  0  0  0  0  0  0  0  0  0
    4.5317   -0.9437    0.4226 C   0  0  0  0  0  0  0  0  0  0  0  0
    3.1827   -1.4907    0.3319 N   0  0  0  0  0  0  0  0  0  0  0  0
    2.6442   -2.0805    1.5437 C   0  0  0  0  0  0  0  0  0  0  0  0
    2.2937   -1.0603    2.6110 C   0  0  0  0  0  0  0  0  0  0  0  0
    1.7949    0.2178    2.3089 C   0  0  0  0  0  0  0  0  0  0  0  0
    1.4446    1.1333    3.3068 C   0  0  0  0  0  0  0  0  0  0  0  0
    1.5890    0.7966    4.6613 C   0  0  0  0  0  0  0  0  0  0  0  0
    2.0799   -0.4642    4.9866 C   0  0  0  0  0  0  0  0  0  0  0  0
    2.4186   -1.3671    3.9712 C   0  0  0  0  0  0  0  0  0  0  0  0
    2.8773   -2.5563    4.4440 O   0  0  0  0  0  0  0  0  0  0  0  0
    2.7160   -2.5893    5.9008 C   0  0  2  0  0  0  0  0  0  0  0  0
    4.0245   -3.1105    6.4836 C   0  0  0  0  0  0  0  0  0  0  0  0
    1.5433   -3.5260    6.1963 C   0  0  0  0  0  0  0  0  0  0  0  0
    2.3983   -1.1166    6.3092 C   0  0  0  0  0  0  0  0  0  0  0  0
    3.6384   -4.2455   -1.7371 H   0  0  0  0  0  0  0  0  0  0  0  0
    3.1654   -4.3237   -0.0275 H   0  0  0  0  0  0  0  0  0  0  0  0
    4.7752   -3.7100   -0.4798 H   0  0  0  0  0  0  0  0  0  0  0  0
    2.0750   -2.3952   -1.2043 H   0  0  0  0  0  0  0  0  0  0  0  0
    4.4689   -2.0780   -2.6127 H   0  0  0  0  0  0  0  0  0  0  0  0
    2.0225   -0.7084   -2.8252 H   0  0  0  0  0  0  0  0  0  0  0  0
    3.5035   -0.2178   -3.6711 H   0  0  0  0  0  0  0  0  0  0  0  0
    2.4850    0.7871   -1.1245 H   0  0  0  0  0  0  0  0  0  0  0  0
    4.5808    1.6084   -0.5719 H   0  0  0  0  0  0  0  0  0  0  0  0
    5.1564    1.2585   -2.2149 H   0  0  0  0  0  0  0  0  0  0  0  0
    5.9433   -0.7429   -1.2335 H   0  0  0  0  0  0  0  0  0  0  0  0
    4.5572   -0.0861    1.1147 H   0  0  0  0  0  0  0  0  0  0  0  0
    5.2607   -1.6886    0.8149 H   0  0  0  0  0  0  0  0  0  0  0  0
    3.3251   -2.8338    1.9921 H   0  0  0  0  0  0  0  0  0  0  0  0
    1.7251   -2.6308    1.2690 H   0  0  0  0  0  0  0  0  0  0  0  0
    1.6883    0.4863    1.2558 H   0  0  0  0  0  0  0  0  0  0  0  0
    1.0584    2.1167    3.0279 H   0  0  0  0  0  0  0  0  0  0  0  0
    1.3232    1.5131    5.4434 H   0  0  0  0  0  0  0  0  0  0  0  0
    4.2427   -4.1207    6.1045 H   0  0  0  0  0  0  0  0  0  0  0  0
    3.9663   -3.1574    7.5826 H   0  0  0  0  0  0  0  0  0  0  0  0
    4.8604   -2.4504    6.2064 H   0  0  0  0  0  0  0  0  0  0  0  0
    1.7352   -4.5250    5.7761 H   0  0  0  0  0  0  0  0  0  0  0  0
    0.6153   -3.1362    5.7498 H   0  0  0  0  0  0  0  0  0  0  0  0
    1.3888   -3.6258    7.2826 H   0  0  0  0  0  0  0  0  0  0  0  0
    3.2693   -0.6386    6.7909 H   0  0  0  0  0  0  0  0  0  0  0  0
    1.5658   -1.0690    7.0293 H   0  0  0  0  0  0  0  0  0  0  0  0
  1  2  1  0
  1 22  1  0
  1 23  1  0
  1 24  1  0
  2  3  1  0
  2  9  1  0
  2 25  1  6
  3  4  1  0
  3  7  1  0
  3 26  1  6
  4  5  1  0
  4 27  1  0
  4 28  1  0
  5  6  1  0
  5 29  1  0
  6  7  1  0
  6 30  1  0
  6 31  1  0
  7  8  1  0
  7 32  1  6
  8  9  1  0
  8 33  1  0
  8 34  1  0
  9 10  1  0
 10 11  1  0
 10 35  1  0
 10 36  1  0
 11 12  2  0
 11 16  1  0
 12 13  1  0
 12 37  1  0
 13 14  2  0
 13 38  1  0
 14 15  1  0
 14 39  1  0
 15 16  2  0
 15 21  1  0
 16 17  1  0
 17 18  1  0
 18 19  1  1
 18 20  1  0
 18 21  1  0
 19 40  1  0
 19 41  1  0
 19 42  1  0
 20 43  1  0
 20 44  1  0
 20 45  1  0
 21 46  1  0
 21 47  1  0
M  END

