
     RDKit          3D

 23 24  0  0  0  0  0  0  0  0999 V2000
    0.9815    0.0305    0.5900 F   0  0  0  0  0  0  0  0  0  0  0  0
    2.2976    0.0066    0.3386 C   0  0  0  0  0  0  0  0  0  0  0  0
    2.9479    1.2479    0.1440 C   0  0  0  0  0  0  0  0  0  0  0  0
    4.3097    1.2900   -0.1102 C   0  0  0  0  0  0  0  0  0  0  0  0
    5.0026    0.0666   -0.1689 C   0  0  0  0  0  0  0  0  0  0  0  0
    6.3303   -0.2088   -0.4025 N   0  0  0  0  0  0  0  0  0  0  0  0
    6.4968   -1.4811   -0.3692 N   0  0  0  0  0  0  0  0  0  0  0  0
    5.3067   -2.0957   -0.1168 N   0  0  0  0  0  0  0  0  0  0  0  0
    5.2555   -3.5468   -0.0376 C   0  0  0  0  0  0  0  0  0  0  0  0
    5.6451   -4.1071    1.3345 C   0  0  0  0  0  0  0  0  0  0  0  0
    4.6894   -3.7776    2.4716 C   0  0  0  0  0  0  0  0  0  0  0  0
    3.0368   -4.4844    2.2015 Cl  0  0  0  0  0  0  0  0  0  0  0  0
    4.3211   -1.1583    0.0243 C   0  0  0  0  0  0  0  0  0  0  0  0
    2.9413   -1.2194    0.2896 C   0  0  0  0  0  0  0  0  0  0  0  0
    2.3470    2.1571    0.2037 H   0  0  0  0  0  0  0  0  0  0  0  0
    4.8365    2.2336   -0.2615 H   0  0  0  0  0  0  0  0  0  0  0  0
    5.9480   -3.9289   -0.8008 H   0  0  0  0  0  0  0  0  0  0  0  0
    4.2396   -3.8686   -0.3098 H   0  0  0  0  0  0  0  0  0  0  0  0
    6.6421   -3.7181    1.6050 H   0  0  0  0  0  0  0  0  0  0  0  0
    5.7397   -5.2017    1.2448 H   0  0  0  0  0  0  0  0  0  0  0  0
    4.5471   -2.6953    2.5962 H   0  0  0  0  0  0  0  0  0  0  0  0
    5.0479   -4.1945    3.4217 H   0  0  0  0  0  0  0  0  0  0  0  0
    2.3975   -2.1459    0.4754 H   0  0  0  0  0  0  0  0  0  0  0  0
  1  2  1  0
  2  3  2  0
  2 14  1  0
  3  4  1  0
  3 15  1  0
  4  5  2  0
  4 16  1  0
  5  6  1  0
  5 13  1  0
  6  7  2  0
  7  8  1  0
  8  9  1  0
  8 13  1  0
  9 10  1  0
  9 17  1  0
  9 18  1  0
 10 11  1  0
 10 19  1  0
 10 20  1  0
 11 12  1  0
 11 21  1  0
 11 22  1  0
 13 14  2  0
 14 23  1  0
M  END

