
     RDKit          3D

171178  0  0  0  0  0  0  0  0999 V2000
    9.4221   15.0247  -10.2273 C   0  0  0  0  0  0  0  0  0  0  0  0
    9.9709   14.3762   -8.9557 C   0  0  0  0  0  0  0  0  0  0  0  0
    9.8798   12.8471   -8.9600 C   0  0  0  0  0  0  0  0  0  0  0  0
   10.4276   12.1904   -7.6894 C   0  0  0  0  0  0  0  0  0  0  0  0
   10.3324   10.6627   -7.7022 C   0  0  0  0  0  0  0  0  0  0  0  0
   10.8786   10.0219   -6.4356 C   0  0  0  0  0  0  0  0  0  0  0  0
   10.7411    8.6165   -6.5537 O   0  0  0  0  0  0  0  0  0  0  0  0
   11.1579    7.8094   -5.5448 C   0  0  0  0  0  0  0  0  0  0  0  0
   11.7299    8.2588   -4.3448 C   0  0  0  0  0  0  0  0  0  0  0  0
   12.1331    7.3368   -3.3732 C   0  0  0  0  0  0  0  0  0  0  0  0
   11.9613    5.9592   -3.5619 C   0  0  0  0  0  0  0  0  0  0  0  0
   12.3503    5.0306   -2.5537 N   0  0  0  0  0  0  0  0  0  0  0  0
   11.9421    5.2738   -1.2097 C   0  0  0  0  0  0  0  0  0  0  0  0
   10.6110    5.5932   -0.9119 C   0  0  0  0  0  0  0  0  0  0  0  0
   10.2047    5.8604    0.3995 C   0  0  0  0  0  0  0  0  0  0  0  0
   11.1330    5.7922    1.4497 C   0  0  0  0  0  0  0  0  0  0  0  0
   10.8427    6.0240    2.7551 O   0  0  0  0  0  0  0  0  0  0  0  0
    9.5160    6.3429    3.1374 C   0  0  0  0  0  0  0  0  0  0  0  0
    9.4879    6.5385    4.6454 C   0  0  0  0  0  0  0  0  0  0  0  0
    8.0967    6.8919    5.1772 C   0  0  0  0  0  0  0  0  0  0  0  0
    8.0555    7.0919    6.6950 C   0  0  0  0  0  0  0  0  0  0  0  0
    6.6669    7.4468    7.2355 C   0  0  0  0  0  0  0  0  0  0  0  0
    6.6334    7.6452    8.7516 C   0  0  0  0  0  0  0  0  0  0  0  0
   12.4697    5.4654    1.1574 C   0  0  0  0  0  0  0  0  0  0  0  0
   12.8691    5.2206   -0.1507 C   0  0  0  0  0  0  0  0  0  0  0  0
   13.1199    3.8998   -2.8772 C   0  0  0  0  0  0  0  0  0  0  0  0
   14.0364    3.9237   -3.9512 C   0  0  0  0  0  0  0  0  0  0  0  0
   14.7907    2.8023   -4.2683 C   0  0  0  0  0  0  0  0  0  0  0  0
   14.6881    1.5986   -3.5343 C   0  0  0  0  0  0  0  0  0  0  0  0
   15.4943    0.4305   -3.8707 C   0  0  0  0  0  0  0  0  0  0  0  0
   16.7261    0.5127   -5.1009 S   0  0  0  0  0  0  0  0  0  0  0  0
   17.2445   -1.1422   -4.9596 C   0  0  0  0  0  0  0  0  0  0  0  0
   18.3130   -1.6730   -5.7969 C   0  0  0  0  0  0  0  0  0  0  0  0
   18.7247   -3.0248   -5.7119 C   0  0  0  0  0  0  0  0  0  0  0  0
   19.7478   -3.5207   -6.5099 C   0  0  0  0  0  0  0  0  0  0  0  0
   20.4153   -2.7006   -7.4451 C   0  0  0  0  0  0  0  0  0  0  0  0
   21.4484   -3.2049   -8.2539 N   0  0  0  0  0  0  0  0  0  0  0  0
   21.4514   -4.5685   -8.6679 C   0  0  0  0  0  0  0  0  0  0  0  0
   20.3070   -5.1602   -9.2199 C   0  0  0  0  0  0  0  0  0  0  0  0
   20.3071   -6.4977   -9.6279 C   0  0  0  0  0  0  0  0  0  0  0  0
   21.4746   -7.2681   -9.5104 C   0  0  0  0  0  0  0  0  0  0  0  0
   21.5841   -8.5684   -9.8840 O   0  0  0  0  0  0  0  0  0  0  0  0
   20.4681   -9.2382  -10.4450 C   0  0  0  0  0  0  0  0  0  0  0  0
   20.8798  -10.6673  -10.7632 C   0  0  0  0  0  0  0  0  0  0  0  0
   19.7474  -11.4935  -11.3783 C   0  0  0  0  0  0  0  0  0  0  0  0
   20.1498  -12.9352  -11.7029 C   0  0  0  0  0  0  0  0  0  0  0  0
   19.0223  -13.7691  -12.3189 C   0  0  0  0  0  0  0  0  0  0  0  0
   19.4314  -15.2072  -12.6404 C   0  0  0  0  0  0  0  0  0  0  0  0
   22.6300   -6.6753   -8.9703 C   0  0  0  0  0  0  0  0  0  0  0  0
   22.6157   -5.3511   -8.5486 C   0  0  0  0  0  0  0  0  0  0  0  0
   22.5182   -2.3645   -8.6776 C   0  0  0  0  0  0  0  0  0  0  0  0
   23.2049   -1.5513   -7.7657 C   0  0  0  0  0  0  0  0  0  0  0  0
   24.2548   -0.7248   -8.1784 C   0  0  0  0  0  0  0  0  0  0  0  0
   24.6554   -0.7164   -9.5237 C   0  0  0  0  0  0  0  0  0  0  0  0
   25.6652    0.0389  -10.0252 O   0  0  0  0  0  0  0  0  0  0  0  0
   26.4014    0.8931   -9.1664 C   0  0  0  0  0  0  0  0  0  0  0  0
   27.4563    1.6097   -9.9950 C   0  0  0  0  0  0  0  0  0  0  0  0
   28.3187    2.5659   -9.1671 C   0  0  0  0  0  0  0  0  0  0  0  0
   29.3854    3.2947   -9.9897 C   0  0  0  0  0  0  0  0  0  0  0  0
   30.2527    4.2534   -9.1682 C   0  0  0  0  0  0  0  0  0  0  0  0
   31.3155    4.9775   -9.9958 C   0  0  0  0  0  0  0  0  0  0  0  0
   23.9793   -1.5416  -10.4405 C   0  0  0  0  0  0  0  0  0  0  0  0
   22.9238   -2.3449  -10.0259 C   0  0  0  0  0  0  0  0  0  0  0  0
   20.0055   -1.3526   -7.5406 C   0  0  0  0  0  0  0  0  0  0  0  0
   18.9879   -0.8591   -6.7361 C   0  0  0  0  0  0  0  0  0  0  0  0
   16.4702   -1.7556   -3.9559 C   0  0  0  0  0  0  0  0  0  0  0  0
   16.5990   -3.0323   -3.5248 N   0  0  0  0  0  0  0  0  0  0  0  0
   15.7933   -3.4516   -2.5802 C   0  0  0  0  0  0  0  0  0  0  0  0
   16.0403   -4.8127   -1.9900 C   0  0  0  0  0  0  0  0  0  0  0  0
   15.7273   -5.1037   -0.8571 O   0  0  0  0  0  0  0  0  0  0  0  0
   16.6579   -5.6388   -2.8409 O   0  0  0  0  0  0  0  0  0  0  0  0
   17.0066   -6.9483   -2.3546 C   0  0  0  0  0  0  0  0  0  0  0  0
   18.3417   -6.9416   -1.6289 C   0  0  0  0  0  0  0  0  0  0  0  0
   14.7650   -2.5933   -2.0241 C   0  0  0  0  0  0  0  0  0  0  0  0
   13.7463   -3.0766   -1.0166 C   0  0  0  0  0  0  0  0  0  0  0  0
   13.5097   -2.5215    0.0246 O   0  0  0  0  0  0  0  0  0  0  0  0
   13.1055   -4.1617   -1.4784 O   0  0  0  0  0  0  0  0  0  0  0  0
   12.1652   -4.7995   -0.5939 C   0  0  0  0  0  0  0  0  0  0  0  0
   10.7809   -4.1825   -0.7025 C   0  0  0  0  0  0  0  0  0  0  0  0
   14.6391   -1.3465   -2.3988 N   0  0  0  0  0  0  0  0  0  0  0  0
   15.4825   -0.8751   -3.3531 C   0  0  0  0  0  0  0  0  0  0  0  0
   13.7718    1.5840   -2.4558 C   0  0  0  0  0  0  0  0  0  0  0  0
   13.0078    2.7007   -2.1409 C   0  0  0  0  0  0  0  0  0  0  0  0
   11.3737    5.5187   -4.7641 C   0  0  0  0  0  0  0  0  0  0  0  0
   10.9885    6.4269   -5.7427 C   0  0  0  0  0  0  0  0  0  0  0  0
    9.5035   16.1227  -10.1897 H   0  0  0  0  0  0  0  0  0  0  0  0
    8.3584   14.7750  -10.3779 H   0  0  0  0  0  0  0  0  0  0  0  0
    9.9696   14.6811  -11.1211 H   0  0  0  0  0  0  0  0  0  0  0  0
    9.4277   14.7693   -8.0769 H   0  0  0  0  0  0  0  0  0  0  0  0
   11.0253   14.6762   -8.8138 H   0  0  0  0  0  0  0  0  0  0  0  0
   10.4236   12.4514   -9.8379 H   0  0  0  0  0  0  0  0  0  0  0  0
    8.8254   12.5445   -9.1007 H   0  0  0  0  0  0  0  0  0  0  0  0
    9.8829   12.5870   -6.8123 H   0  0  0  0  0  0  0  0  0  0  0  0
   11.4821   12.4936   -7.5499 H   0  0  0  0  0  0  0  0  0  0  0  0
   10.8838   10.2538   -8.5665 H   0  0  0  0  0  0  0  0  0  0  0  0
    9.2822   10.3475   -7.8282 H   0  0  0  0  0  0  0  0  0  0  0  0
   10.3266   10.3862   -5.5472 H   0  0  0  0  0  0  0  0  0  0  0  0
   11.9433   10.2907   -6.2925 H   0  0  0  0  0  0  0  0  0  0  0  0
   11.8783    9.3222   -4.1565 H   0  0  0  0  0  0  0  0  0  0  0  0
   12.5858    7.6969   -2.4471 H   0  0  0  0  0  0  0  0  0  0  0  0
    9.8783    5.6385   -1.7202 H   0  0  0  0  0  0  0  0  0  0  0  0
    9.1600    6.1080    0.5880 H   0  0  0  0  0  0  0  0  0  0  0  0
    8.8269    5.5292    2.8384 H   0  0  0  0  0  0  0  0  0  0  0  0
    9.1805    7.2631    2.6203 H   0  0  0  0  0  0  0  0  0  0  0  0
   10.2091    7.3317    4.9083 H   0  0  0  0  0  0  0  0  0  0  0  0
    9.8558    5.6148    5.1244 H   0  0  0  0  0  0  0  0  0  0  0  0
    7.3812    6.0966    4.8965 H   0  0  0  0  0  0  0  0  0  0  0  0
    7.7338    7.8109    4.6801 H   0  0  0  0  0  0  0  0  0  0  0  0
    8.7712    7.8865    6.9772 H   0  0  0  0  0  0  0  0  0  0  0  0
    8.4175    6.1734    7.1933 H   0  0  0  0  0  0  0  0  0  0  0  0
    5.9532    6.6518    6.9516 H   0  0  0  0  0  0  0  0  0  0  0  0
    6.3065    8.3642    6.7352 H   0  0  0  0  0  0  0  0  0  0  0  0
    6.9520    6.7324    9.2826 H   0  0  0  0  0  0  0  0  0  0  0  0
    5.6212    7.8988    9.1048 H   0  0  0  0  0  0  0  0  0  0  0  0
    7.3086    8.4594    9.0645 H   0  0  0  0  0  0  0  0  0  0  0  0
   13.1846    5.4220    1.9816 H   0  0  0  0  0  0  0  0  0  0  0  0
   13.9129    4.9796   -0.3623 H   0  0  0  0  0  0  0  0  0  0  0  0
   14.1574    4.8352   -4.5381 H   0  0  0  0  0  0  0  0  0  0  0  0
   15.4860    2.8716   -5.1091 H   0  0  0  0  0  0  0  0  0  0  0  0
   18.2346   -3.6812   -4.9935 H   0  0  0  0  0  0  0  0  0  0  0  0
   20.0437   -4.5657   -6.4060 H   0  0  0  0  0  0  0  0  0  0  0  0
   19.3964   -4.5674   -9.3288 H   0  0  0  0  0  0  0  0  0  0  0  0
   19.3945   -6.9206  -10.0481 H   0  0  0  0  0  0  0  0  0  0  0  0
   20.1323   -8.7174  -11.3628 H   0  0  0  0  0  0  0  0  0  0  0  0
   19.6196   -9.2279   -9.7335 H   0  0  0  0  0  0  0  0  0  0  0  0
   21.2372  -11.1431   -9.8337 H   0  0  0  0  0  0  0  0  0  0  0  0
   21.7450  -10.6375  -11.4479 H   0  0  0  0  0  0  0  0  0  0  0  0
   19.3897  -11.0001  -12.3012 H   0  0  0  0  0  0  0  0  0  0  0  0
   18.8822  -11.5046  -10.6894 H   0  0  0  0  0  0  0  0  0  0  0  0
   20.5079  -13.4297  -10.7807 H   0  0  0  0  0  0  0  0  0  0  0  0
   21.0151  -12.9254  -12.3916 H   0  0  0  0  0  0  0  0  0  0  0  0
   18.6653  -13.2724  -13.2396 H   0  0  0  0  0  0  0  0  0  0  0  0
   18.1584  -13.7765  -11.6294 H   0  0  0  0  0  0  0  0  0  0  0  0
   20.2690  -15.2352  -13.3575 H   0  0  0  0  0  0  0  0  0  0  0  0
   18.5976  -15.7767  -13.0811 H   0  0  0  0  0  0  0  0  0  0  0  0
   19.7577  -15.7437  -11.7335 H   0  0  0  0  0  0  0  0  0  0  0  0
   23.5314   -7.2851   -8.8806 H   0  0  0  0  0  0  0  0  0  0  0  0
   23.5175   -4.9078   -8.1216 H   0  0  0  0  0  0  0  0  0  0  0  0
   22.9121   -1.5598   -6.7138 H   0  0  0  0  0  0  0  0  0  0  0  0
   24.7599   -0.1048   -7.4376 H   0  0  0  0  0  0  0  0  0  0  0  0
   26.8769    0.3036   -8.3584 H   0  0  0  0  0  0  0  0  0  0  0  0
   25.7242    1.6243   -8.6836 H   0  0  0  0  0  0  0  0  0  0  0  0
   26.9493    2.1596  -10.8066 H   0  0  0  0  0  0  0  0  0  0  0  0
   28.0911    0.8512  -10.4847 H   0  0  0  0  0  0  0  0  0  0  0  0
   28.8106    2.0058   -8.3501 H   0  0  0  0  0  0  0  0  0  0  0  0
   27.6703    3.3121   -8.6712 H   0  0  0  0  0  0  0  0  0  0  0  0
   28.8949    3.8553  -10.8071 H   0  0  0  0  0  0  0  0  0  0  0  0
   30.0344    2.5496  -10.4863 H   0  0  0  0  0  0  0  0  0  0  0  0
   30.7409    3.6911   -8.3513 H   0  0  0  0  0  0  0  0  0  0  0  0
   29.6019    4.9963   -8.6720 H   0  0  0  0  0  0  0  0  0  0  0  0
   32.0064    4.2634  -10.4748 H   0  0  0  0  0  0  0  0  0  0  0  0
   31.9194    5.6575   -9.3739 H   0  0  0  0  0  0  0  0  0  0  0  0
   30.8574    5.5796  -10.7984 H   0  0  0  0  0  0  0  0  0  0  0  0
   24.2976   -1.5245  -11.4849 H   0  0  0  0  0  0  0  0  0  0  0  0
   22.4019   -2.9723  -10.7513 H   0  0  0  0  0  0  0  0  0  0  0  0
   20.4902   -0.6910   -8.2598 H   0  0  0  0  0  0  0  0  0  0  0  0
   18.7033    0.1900   -6.8529 H   0  0  0  0  0  0  0  0  0  0  0  0
   17.0448   -7.5760   -3.2565 H   0  0  0  0  0  0  0  0  0  0  0  0
   16.2027   -7.3104   -1.6966 H   0  0  0  0  0  0  0  0  0  0  0  0
   19.1391   -6.5419   -2.2743 H   0  0  0  0  0  0  0  0  0  0  0  0
   18.6141   -7.9695   -1.3397 H   0  0  0  0  0  0  0  0  0  0  0  0
   18.2871   -6.3329   -0.7143 H   0  0  0  0  0  0  0  0  0  0  0  0
   12.5496   -4.7340    0.4345 H   0  0  0  0  0  0  0  0  0  0  0  0
   12.1604   -5.8537   -0.9069 H   0  0  0  0  0  0  0  0  0  0  0  0
   10.7916   -3.1385   -0.3566 H   0  0  0  0  0  0  0  0  0  0  0  0
   10.0701   -4.7453   -0.0760 H   0  0  0  0  0  0  0  0  0  0  0  0
   10.4184   -4.2080   -1.7421 H   0  0  0  0  0  0  0  0  0  0  0  0
   13.6563    0.6710   -1.8727 H   0  0  0  0  0  0  0  0  0  0  0  0
   12.3051    2.6446   -1.3083 H   0  0  0  0  0  0  0  0  0  0  0  0
   11.2221    4.4497   -4.9267 H   0  0  0  0  0  0  0  0  0  0  0  0
   10.5333    6.0893   -6.6762 H   0  0  0  0  0  0  0  0  0  0  0  0
  1  2  1  0
  1 86  1  0
  1 87  1  0
  1 88  1  0
  2  3  1  0
  2 89  1  0
  2 90  1  0
  3  4  1  0
  3 91  1  0
  3 92  1  0
  4  5  1  0
  4 93  1  0
  4 94  1  0
  5  6  1  0
  5 95  1  0
  5 96  1  0
  6  7  1  0
  6 97  1  0
  6 98  1  0
  7  8  1  0
  8  9  2  0
  8 85  1  0
  9 10  1  0
  9 99  1  0
 10 11  2  0
 10100  1  0
 11 12  1  0
 11 84  1  0
 12 13  1  0
 12 26  1  0
 13 14  2  0
 13 25  1  0
 14 15  1  0
 14101  1  0
 15 16  2  0
 15102  1  0
 16 17  1  0
 16 24  1  0
 17 18  1  0
 18 19  1  0
 18103  1  0
 18104  1  0
 19 20  1  0
 19105  1  0
 19106  1  0
 20 21  1  0
 20107  1  0
 20108  1  0
 21 22  1  0
 21109  1  0
 21110  1  0
 22 23  1  0
 22111  1  0
 22112  1  0
 23113  1  0
 23114  1  0
 23115  1  0
 24 25  2  0
 24116  1  0
 25117  1  0
 26 27  2  0
 26 83  1  0
 27 28  1  0
 27118  1  0
 28 29  2  0
 28119  1  0
 29 30  1  0
 29 82  1  0
 30 31  2  0
 30 81  1  0
 31 32  1  0
 32 33  1  0
 32 66  2  0
 33 34  2  0
 33 65  1  0
 34 35  1  0
 34120  1  0
 35 36  2  0
 35121  1  0
 36 37  1  0
 36 64  1  0
 37 38  1  0
 37 51  1  0
 38 39  2  0
 38 50  1  0
 39 40  1  0
 39122  1  0
 40 41  2  0
 40123  1  0
 41 42  1  0
 41 49  1  0
 42 43  1  0
 43 44  1  0
 43124  1  0
 43125  1  0
 44 45  1  0
 44126  1  0
 44127  1  0
 45 46  1  0
 45128  1  0
 45129  1  0
 46 47  1  0
 46130  1  0
 46131  1  0
 47 48  1  0
 47132  1  0
 47133  1  0
 48134  1  0
 48135  1  0
 48136  1  0
 49 50  2  0
 49137  1  0
 50138  1  0
 51 52  2  0
 51 63  1  0
 52 53  1  0
 52139  1  0
 53 54  2  0
 53140  1  0
 54 55  1  0
 54 62  1  0
 55 56  1  0
 56 57  1  0
 56141  1  0
 56142  1  0
 57 58  1  0
 57143  1  0
 57144  1  0
 58 59  1  0
 58145  1  0
 58146  1  0
 59 60  1  0
 59147  1  0
 59148  1  0
 60 61  1  0
 60149  1  0
 60150  1  0
 61151  1  0
 61152  1  0
 61153  1  0
 62 63  2  0
 62154  1  0
 63155  1  0
 64 65  2  0
 64156  1  0
 65157  1  0
 66 67  1  0
 66 81  1  0
 67 68  2  0
 68 69  1  0
 68 74  1  0
 69 70  2  0
 69 71  1  0
 71 72  1  0
 72 73  1  0
 72158  1  0
 72159  1  0
 73160  1  0
 73161  1  0
 73162  1  0
 74 75  2  0
 74 80  1  0
 75 76  1  0
 75 77  1  0
 77 78  1  0
 78 79  1  0
 78163  1  0
 78164  1  0
 79165  1  0
 79166  1  0
 79167  1  0
 80 81  2  0
 82 83  2  0
 82168  1  0
 83169  1  0
 84 85  2  0
 84170  1  0
 85171  1  0
M  CHG  2  31   1  76  -1
M  END

