
     RDKit          3D

 53 56  0  0  0  0  0  0  0  0999 V2000
    3.0657   -0.4396    1.2981 C   0  0  0  0  0  0  0  0  0  0  0  0
    2.9859    0.2114   -0.0715 C   0  0  0  0  0  0  0  0  0  0  0  0
    2.7631    1.4021   -0.1822 O   0  0  0  0  0  0  0  0  0  0  0  0
    3.1874   -0.6440   -1.2898 C   0  0  0  0  0  0  0  0  0  0  0  0
    3.1115   -0.0288   -2.5530 C   0  0  0  0  0  0  0  0  0  0  0  0
    3.2884   -0.7639   -3.7174 C   0  0  0  0  0  0  0  0  0  0  0  0
    3.5497   -2.1533   -3.6572 C   0  0  0  0  0  0  0  0  0  0  0  0
    3.7324   -2.9133   -4.8491 C   0  0  0  0  0  0  0  0  0  0  0  0
    3.8887   -3.5625   -5.8711 C   0  0  0  0  0  0  0  0  0  0  0  0
    4.0710   -4.3200   -7.0653 C   0  0  0  0  0  0  0  0  0  0  0  0
    4.0048   -3.7034   -8.3336 C   0  0  0  0  0  0  0  0  0  0  0  0
    4.1864   -4.4464   -9.4957 C   0  0  0  0  0  0  0  0  0  0  0  0
    4.4364   -5.8327   -9.4508 C   0  0  0  0  0  0  0  0  0  0  0  0
    4.6190   -6.6218  -10.6959 C   0  0  0  0  0  0  0  0  0  0  0  0
    5.2850   -6.0445  -11.8173 C   0  0  0  0  0  0  0  0  0  0  0  0
    5.4856   -6.7382  -13.0010 C   0  0  0  0  0  0  0  0  0  0  0  0
    6.1819   -6.1702  -14.0952 N   0  0  0  0  0  0  0  0  0  0  0  0
    7.4838   -6.7528  -14.4049 C   0  0  0  0  0  0  0  0  0  0  0  0
    6.1885   -4.7252  -14.2069 C   0  0  0  0  0  0  0  0  0  0  0  0
    4.9478   -8.0710  -13.1316 C   0  0  0  0  0  0  0  0  0  0  0  0
    4.9743   -8.7941  -14.3552 C   0  0  0  0  0  0  0  0  0  0  0  0
    4.4564  -10.0717  -14.4400 C   0  0  0  0  0  0  0  0  0  0  0  0
    3.8797  -10.6865  -13.3022 C   0  0  0  0  0  0  0  0  0  0  0  0
    3.8018   -9.9955  -12.1116 C   0  0  0  0  0  0  0  0  0  0  0  0
    4.3145   -8.6718  -11.9936 C   0  0  0  0  0  0  0  0  0  0  0  0
    4.1698   -7.9291  -10.7909 C   0  0  0  0  0  0  0  0  0  0  0  0
    4.5035   -6.4423   -8.1816 C   0  0  0  0  0  0  0  0  0  0  0  0
    4.3251   -5.7083   -7.0139 C   0  0  0  0  0  0  0  0  0  0  0  0
    3.6256   -2.7702   -2.3890 C   0  0  0  0  0  0  0  0  0  0  0  0
    3.4469   -2.0245   -1.2269 C   0  0  0  0  0  0  0  0  0  0  0  0
    2.8969    0.3288    2.0629 H   0  0  0  0  0  0  0  0  0  0  0  0
    4.0517   -0.9051    1.4588 H   0  0  0  0  0  0  0  0  0  0  0  0
    2.3085   -1.2333    1.4040 H   0  0  0  0  0  0  0  0  0  0  0  0
    2.9094    1.0435   -2.5884 H   0  0  0  0  0  0  0  0  0  0  0  0
    3.2275   -0.2766   -4.6926 H   0  0  0  0  0  0  0  0  0  0  0  0
    3.8013   -2.6324   -8.3953 H   0  0  0  0  0  0  0  0  0  0  0  0
    4.1064   -3.9451  -10.4627 H   0  0  0  0  0  0  0  0  0  0  0  0
    5.6996   -5.0422  -11.7115 H   0  0  0  0  0  0  0  0  0  0  0  0
    7.4545   -7.8464  -14.3216 H   0  0  0  0  0  0  0  0  0  0  0  0
    8.2784   -6.3825  -13.7218 H   0  0  0  0  0  0  0  0  0  0  0  0
    7.7771   -6.4944  -15.4359 H   0  0  0  0  0  0  0  0  0  0  0  0
    5.1758   -4.3260  -14.0518 H   0  0  0  0  0  0  0  0  0  0  0  0
    6.5163   -4.4433  -15.2208 H   0  0  0  0  0  0  0  0  0  0  0  0
    6.8747   -4.2221  -13.4907 H   0  0  0  0  0  0  0  0  0  0  0  0
    5.3839   -8.3081  -15.2412 H   0  0  0  0  0  0  0  0  0  0  0  0
    4.4773  -10.6062  -15.3933 H   0  0  0  0  0  0  0  0  0  0  0  0
    3.4785  -11.7006  -13.3761 H   0  0  0  0  0  0  0  0  0  0  0  0
    3.3310  -10.4530  -11.2371 H   0  0  0  0  0  0  0  0  0  0  0  0
    3.6482   -8.3959   -9.9524 H   0  0  0  0  0  0  0  0  0  0  0  0
    4.7254   -7.5092   -8.1098 H   0  0  0  0  0  0  0  0  0  0  0  0
    4.3910   -6.2021   -6.0422 H   0  0  0  0  0  0  0  0  0  0  0  0
    3.8266   -3.8416   -2.3292 H   0  0  0  0  0  0  0  0  0  0  0  0
    3.5118   -2.5315   -0.2623 H   0  0  0  0  0  0  0  0  0  0  0  0
  1  2  1  0
  1 31  1  0
  1 32  1  0
  1 33  1  0
  2  3  2  0
  2  4  1  0
  4  5  2  0
  4 30  1  0
  5  6  1  0
  5 34  1  0
  6  7  2  0
  6 35  1  0
  7  8  1  0
  7 29  1  0
  8  9  3  0
  9 10  1  0
 10 11  2  0
 10 28  1  0
 11 12  1  0
 11 36  1  0
 12 13  2  0
 12 37  1  0
 13 14  1  0
 13 27  1  0
 14 15  2  0
 14 26  1  0
 15 16  1  0
 15 38  1  0
 16 17  1  0
 16 20  2  0
 17 18  1  0
 17 19  1  0
 18 39  1  0
 18 40  1  0
 18 41  1  0
 19 42  1  0
 19 43  1  0
 19 44  1  0
 20 21  1  0
 20 25  1  0
 21 22  2  0
 21 45  1  0
 22 23  1  0
 22 46  1  0
 23 24  2  0
 23 47  1  0
 24 25  1  0
 24 48  1  0
 25 26  2  0
 26 49  1  0
 27 28  2  0
 27 50  1  0
 28 51  1  0
 29 30  2  0
 29 52  1  0
 30 53  1  0
M  END

