
     RDKit          3D

135147  0  0  0  0  0  0  0  0999 V2000
    6.0421    7.0654   12.7084 C   0  0  0  0  0  0  0  0  0  0  0  0
    6.2382    6.9264   11.1752 C   0  0  1  0  0  0  0  0  0  0  0  0
    6.0164    8.3063   10.5003 C   0  0  0  0  0  0  0  0  0  0  0  0
    7.6729    6.4571   10.8952 C   0  0  0  0  0  0  0  0  0  0  0  0
    8.7514    7.2469   11.3229 C   0  0  0  0  0  0  0  0  0  0  0  0
   10.0816    6.8882   11.1080 C   0  0  0  0  0  0  0  0  0  0  0  0
   10.3555    5.6940   10.4398 C   0  0  0  0  0  0  0  0  0  0  0  0
    9.3109    4.8858   10.0009 C   0  0  0  0  0  0  0  0  0  0  0  0
    7.9639    5.2502   10.2193 C   0  0  0  0  0  0  0  0  0  0  0  0
    6.9284    4.4135    9.7643 N   0  0  0  0  0  0  0  0  0  0  0  0
    7.2621    3.2014    9.0784 C   0  0  0  0  0  0  0  0  0  0  0  0
    7.4422    2.0122    9.7952 C   0  0  0  0  0  0  0  0  0  0  0  0
    7.7764    0.8316    9.1286 C   0  0  0  0  0  0  0  0  0  0  0  0
    7.9258    0.8210    7.7308 C   0  0  0  0  0  0  0  0  0  0  0  0
    8.2063   -0.4219    6.9366 C   0  0  0  0  0  0  0  0  0  0  0  0
    7.8405   -0.5020    5.7761 O   0  0  0  0  0  0  0  0  0  0  0  0
    8.9404   -1.5846    7.5545 C   0  0  0  0  0  0  0  0  0  0  0  0
    9.9028   -1.4463    8.5583 C   0  0  0  0  0  0  0  0  0  0  0  0
   10.6106   -2.5644    9.0395 C   0  0  0  0  0  0  0  0  0  0  0  0
   11.5747   -2.3324   10.1746 C   0  0  0  0  0  0  0  0  0  0  0  0
   11.3998   -1.3817   10.9178 O   0  0  0  0  0  0  0  0  0  0  0  0
   12.7339   -3.2598   10.3990 C   0  0  0  0  0  0  0  0  0  0  0  0
   13.2501   -3.3542   11.7042 C   0  0  0  0  0  0  0  0  0  0  0  0
   14.3541   -4.1583   11.9744 C   0  0  0  0  0  0  0  0  0  0  0  0
   14.9825   -4.8645   10.9377 C   0  0  0  0  0  0  0  0  0  0  0  0
   16.1217   -5.6876   11.2126 N   0  0  0  0  0  0  0  0  0  0  0  0
   15.9251   -7.0450   11.5272 C   0  0  0  0  0  0  0  0  0  0  0  0
   14.6169   -7.5758   11.5689 C   0  0  0  0  0  0  0  0  0  0  0  0
   14.3927   -8.9146   11.8759 C   0  0  0  0  0  0  0  0  0  0  0  0
   15.4701   -9.7582   12.1503 C   0  0  0  0  0  0  0  0  0  0  0  0
   16.7611   -9.2326   12.1102 C   0  0  0  0  0  0  0  0  0  0  0  0
   17.0250   -7.8884   11.8042 C   0  0  0  0  0  0  0  0  0  0  0  0
   18.4776   -7.3922   11.7831 C   0  0  1  0  0  0  0  0  0  0  0  0
   19.1079   -7.6130   13.1841 C   0  0  0  0  0  0  0  0  0  0  0  0
   19.2740   -8.2033   10.7264 C   0  0  0  0  0  0  0  0  0  0  0  0
   18.5541   -5.9000   11.4298 C   0  0  0  0  0  0  0  0  0  0  0  0
   19.8073   -5.2717   11.3638 C   0  0  0  0  0  0  0  0  0  0  0  0
   19.9596   -3.9219   11.0486 C   0  0  0  0  0  0  0  0  0  0  0  0
   18.8194   -3.1610   10.7867 C   0  0  0  0  0  0  0  0  0  0  0  0
   17.5599   -3.7507   10.8428 C   0  0  0  0  0  0  0  0  0  0  0  0
   17.4071   -5.1179   11.1631 C   0  0  0  0  0  0  0  0  0  0  0  0
   14.4917   -4.7546    9.6308 C   0  0  0  0  0  0  0  0  0  0  0  0
   13.3725   -3.9639    9.3636 C   0  0  0  0  0  0  0  0  0  0  0  0
   10.3128   -3.8301    8.5267 C   0  0  0  0  0  0  0  0  0  0  0  0
    9.3622   -3.9878    7.4999 C   0  0  0  0  0  0  0  0  0  0  0  0
    9.0576   -5.3954    7.0534 C   0  0  0  0  0  0  0  0  0  0  0  0
    9.2470   -6.3184    7.8269 O   0  0  0  0  0  0  0  0  0  0  0  0
    8.5264   -5.6670    5.6750 C   0  0  0  0  0  0  0  0  0  0  0  0
    7.7745   -6.8414    5.4887 C   0  0  0  0  0  0  0  0  0  0  0  0
    7.2943   -7.1847    4.2279 C   0  0  0  0  0  0  0  0  0  0  0  0
    7.5794   -6.3725    3.1199 C   0  0  0  0  0  0  0  0  0  0  0  0
    7.0932   -6.7288    1.8207 N   0  0  0  0  0  0  0  0  0  0  0  0
    5.8421   -6.2412    1.4005 C   0  0  0  0  0  0  0  0  0  0  0  0
    5.0862   -5.4107    2.2571 C   0  0  0  0  0  0  0  0  0  0  0  0
    3.8461   -4.9135    1.8676 C   0  0  0  0  0  0  0  0  0  0  0  0
    3.3281   -5.2336    0.6118 C   0  0  0  0  0  0  0  0  0  0  0  0
    4.0749   -6.0543   -0.2326 C   0  0  0  0  0  0  0  0  0  0  0  0
    5.3285   -6.5737    0.1262 C   0  0  0  0  0  0  0  0  0  0  0  0
    6.0843   -7.4694   -0.8654 C   0  0  1  0  0  0  0  0  0  0  0  0
    5.2125   -8.7114   -1.1913 C   0  0  0  0  0  0  0  0  0  0  0  0
    6.3489   -6.6695   -2.1688 C   0  0  0  0  0  0  0  0  0  0  0  0
    7.4264   -7.9379   -0.2855 C   0  0  0  0  0  0  0  0  0  0  0  0
    8.2543   -8.7717   -1.0531 C   0  0  0  0  0  0  0  0  0  0  0  0
    9.4875   -9.2371   -0.5981 C   0  0  0  0  0  0  0  0  0  0  0  0
    9.9197   -8.8590    0.6739 C   0  0  0  0  0  0  0  0  0  0  0  0
    9.1251   -8.0328    1.4631 C   0  0  0  0  0  0  0  0  0  0  0  0
    7.8757   -7.5628    1.0013 C   0  0  0  0  0  0  0  0  0  0  0  0
    8.3485   -5.2152    3.2919 C   0  0  0  0  0  0  0  0  0  0  0  0
    8.8139   -4.8608    4.5598 C   0  0  0  0  0  0  0  0  0  0  0  0
    8.6919   -2.8612    7.0150 C   0  0  0  0  0  0  0  0  0  0  0  0
    7.7198    2.0154    7.0161 C   0  0  0  0  0  0  0  0  0  0  0  0
    7.4034    3.1960    7.6823 C   0  0  0  0  0  0  0  0  0  0  0  0
    5.5737    4.7399    9.9586 C   0  0  0  0  0  0  0  0  0  0  0  0
    4.5650    3.8727    9.4834 C   0  0  0  0  0  0  0  0  0  0  0  0
    3.2172    4.1700    9.6625 C   0  0  0  0  0  0  0  0  0  0  0  0
    2.8415    5.3415   10.3214 C   0  0  0  0  0  0  0  0  0  0  0  0
    3.8383    6.1967   10.7900 C   0  0  0  0  0  0  0  0  0  0  0  0
    5.2066    5.9300   10.6273 C   0  0  0  0  0  0  0  0  0  0  0  0
    6.7545    7.7866   13.1371 H   0  0  0  0  0  0  0  0  0  0  0  0
    6.1946    6.0979   13.2105 H   0  0  0  0  0  0  0  0  0  0  0  0
    5.0278    7.4177   12.9499 H   0  0  0  0  0  0  0  0  0  0  0  0
    6.7281    9.0546   10.8807 H   0  0  0  0  0  0  0  0  0  0  0  0
    5.0016    8.6857   10.6940 H   0  0  0  0  0  0  0  0  0  0  0  0
    6.1498    8.2336    9.4103 H   0  0  0  0  0  0  0  0  0  0  0  0
    8.5421    8.1820   11.8469 H   0  0  0  0  0  0  0  0  0  0  0  0
   10.8903    7.5332   11.4588 H   0  0  0  0  0  0  0  0  0  0  0  0
   11.3870    5.3829   10.2560 H   0  0  0  0  0  0  0  0  0  0  0  0
    9.5419    3.9568    9.4818 H   0  0  0  0  0  0  0  0  0  0  0  0
    7.3166    2.0191   10.8797 H   0  0  0  0  0  0  0  0  0  0  0  0
    7.8951   -0.0868    9.7056 H   0  0  0  0  0  0  0  0  0  0  0  0
   10.1380   -0.4721    8.9881 H   0  0  0  0  0  0  0  0  0  0  0  0
   12.7664   -2.7829   12.4986 H   0  0  0  0  0  0  0  0  0  0  0  0
   14.7460   -4.2444   12.9900 H   0  0  0  0  0  0  0  0  0  0  0  0
   13.7648   -6.9312   11.3577 H   0  0  0  0  0  0  0  0  0  0  0  0
   13.3681   -9.2943   11.8990 H   0  0  0  0  0  0  0  0  0  0  0  0
   15.3107  -10.8112   12.3927 H   0  0  0  0  0  0  0  0  0  0  0  0
   17.6007   -9.8967   12.3263 H   0  0  0  0  0  0  0  0  0  0  0  0
   19.0879   -8.6765   13.4665 H   0  0  0  0  0  0  0  0  0  0  0  0
   18.5595   -7.0469   13.9523 H   0  0  0  0  0  0  0  0  0  0  0  0
   20.1581   -7.2843   13.2046 H   0  0  0  0  0  0  0  0  0  0  0  0
   19.2573   -9.2797   10.9553 H   0  0  0  0  0  0  0  0  0  0  0  0
   20.3278   -7.8876   10.6934 H   0  0  0  0  0  0  0  0  0  0  0  0
   18.8454   -8.0627    9.7225 H   0  0  0  0  0  0  0  0  0  0  0  0
   20.7025   -5.8632   11.5676 H   0  0  0  0  0  0  0  0  0  0  0  0
   20.9548   -3.4737   11.0087 H   0  0  0  0  0  0  0  0  0  0  0  0
   18.9034   -2.1003   10.5365 H   0  0  0  0  0  0  0  0  0  0  0  0
   16.6805   -3.1425   10.6358 H   0  0  0  0  0  0  0  0  0  0  0  0
   14.9957   -5.2931    8.8258 H   0  0  0  0  0  0  0  0  0  0  0  0
   13.0157   -3.8768    8.3360 H   0  0  0  0  0  0  0  0  0  0  0  0
   10.7871   -4.7289    8.9227 H   0  0  0  0  0  0  0  0  0  0  0  0
    7.5786   -7.4774    6.3540 H   0  0  0  0  0  0  0  0  0  0  0  0
    6.6987   -8.0888    4.0852 H   0  0  0  0  0  0  0  0  0  0  0  0
    5.4761   -5.1510    3.2402 H   0  0  0  0  0  0  0  0  0  0  0  0
    3.2867   -4.2723    2.5536 H   0  0  0  0  0  0  0  0  0  0  0  0
    2.3566   -4.8509    0.2913 H   0  0  0  0  0  0  0  0  0  0  0  0
    3.6654   -6.3020   -1.2143 H   0  0  0  0  0  0  0  0  0  0  0  0
    4.2462   -8.4161   -1.6275 H   0  0  0  0  0  0  0  0  0  0  0  0
    5.0102   -9.2959   -0.2810 H   0  0  0  0  0  0  0  0  0  0  0  0
    5.7144   -9.3717   -1.9147 H   0  0  0  0  0  0  0  0  0  0  0  0
    5.4069   -6.3295   -2.6255 H   0  0  0  0  0  0  0  0  0  0  0  0
    6.8756   -7.2851   -2.9138 H   0  0  0  0  0  0  0  0  0  0  0  0
    6.9666   -5.7820   -1.9634 H   0  0  0  0  0  0  0  0  0  0  0  0
    7.9205   -9.0696   -2.0494 H   0  0  0  0  0  0  0  0  0  0  0  0
   10.0996   -9.8849   -1.2294 H   0  0  0  0  0  0  0  0  0  0  0  0
   10.8812   -9.2061    1.0611 H   0  0  0  0  0  0  0  0  0  0  0  0
    9.4773   -7.7475    2.4533 H   0  0  0  0  0  0  0  0  0  0  0  0
    8.5799   -4.5949    2.4238 H   0  0  0  0  0  0  0  0  0  0  0  0
    9.4246   -3.9631    4.6679 H   0  0  0  0  0  0  0  0  0  0  0  0
    7.9450   -2.9422    6.2248 H   0  0  0  0  0  0  0  0  0  0  0  0
    7.8106    1.9936    5.9286 H   0  0  0  0  0  0  0  0  0  0  0  0
    7.2561    4.1261    7.1295 H   0  0  0  0  0  0  0  0  0  0  0  0
    4.8409    2.9544    8.9671 H   0  0  0  0  0  0  0  0  0  0  0  0
    2.4612    3.4781    9.2826 H   0  0  0  0  0  0  0  0  0  0  0  0
    1.7880    5.5887   10.4699 H   0  0  0  0  0  0  0  0  0  0  0  0
    3.5394    7.1122   11.3050 H   0  0  0  0  0  0  0  0  0  0  0  0
  2  1  1  1
  1 79  1  0
  1 80  1  0
  1 81  1  0
  2  3  1  0
  2  4  1  0
  2 78  1  0
  3 82  1  0
  3 83  1  0
  3 84  1  0
  4  5  1  0
  4  9  2  0
  5  6  2  0
  5 85  1  0
  6  7  1  0
  6 86  1  0
  7  8  2  0
  7 87  1  0
  8  9  1  0
  8 88  1  0
  9 10  1  0
 10 11  1  0
 10 73  1  0
 11 12  2  0
 11 72  1  0
 12 13  1  0
 12 89  1  0
 13 14  2  0
 13 90  1  0
 14 15  1  0
 14 71  1  0
 15 16  2  0
 15 17  1  0
 17 18  2  0
 17 70  1  0
 18 19  1  0
 18 91  1  0
 19 20  1  0
 19 44  2  0
 20 21  2  0
 20 22  1  0
 22 23  2  0
 22 43  1  0
 23 24  1  0
 23 92  1  0
 24 25  2  0
 24 93  1  0
 25 26  1  0
 25 42  1  0
 26 27  1  0
 26 41  1  0
 27 28  2  0
 27 32  1  0
 28 29  1  0
 28 94  1  0
 29 30  2  0
 29 95  1  0
 30 31  1  0
 30 96  1  0
 31 32  2  0
 31 97  1  0
 32 33  1  0
 33 34  1  1
 33 35  1  0
 33 36  1  0
 34 98  1  0
 34 99  1  0
 34100  1  0
 35101  1  0
 35102  1  0
 35103  1  0
 36 37  2  0
 36 41  1  0
 37 38  1  0
 37104  1  0
 38 39  2  0
 38105  1  0
 39 40  1  0
 39106  1  0
 40 41  2  0
 40107  1  0
 42 43  2  0
 42108  1  0
 43109  1  0
 44 45  1  0
 44110  1  0
 45 46  1  0
 45 70  2  0
 46 47  2  0
 46 48  1  0
 48 49  2  0
 48 69  1  0
 49 50  1  0
 49111  1  0
 50 51  2  0
 50112  1  0
 51 52  1  0
 51 68  1  0
 52 53  1  0
 52 67  1  0
 53 54  2  0
 53 58  1  0
 54 55  1  0
 54113  1  0
 55 56  2  0
 55114  1  0
 56 57  1  0
 56115  1  0
 57 58  2  0
 57116  1  0
 58 59  1  0
 59 60  1  6
 59 61  1  0
 59 62  1  0
 60117  1  0
 60118  1  0
 60119  1  0
 61120  1  0
 61121  1  0
 61122  1  0
 62 63  2  0
 62 67  1  0
 63 64  1  0
 63123  1  0
 64 65  2  0
 64124  1  0
 65 66  1  0
 65125  1  0
 66 67  2  0
 66126  1  0
 68 69  2  0
 68127  1  0
 69128  1  0
 70129  1  0
 71 72  2  0
 71130  1  0
 72131  1  0
 73 74  1  0
 73 78  2  0
 74 75  2  0
 74132  1  0
 75 76  1  0
 75133  1  0
 76 77  2  0
 76134  1  0
 77 78  1  0
 77135  1  0
M  END

