
     RDKit          3D

 33 34  0  0  0  0  0  0  0  0999 V2000
    1.1297    0.1204    0.7517 C   0  0  0  0  0  0  0  0  0  0  0  0
    2.5058    0.0880    0.2472 N   0  0  0  0  0  0  0  0  0  0  0  0
    3.1657    1.2355   -0.1502 C   0  0  0  0  0  0  0  0  0  0  0  0
    2.4216    2.5519   -0.1396 C   0  0  0  0  0  0  0  0  0  0  0  0
    1.4483    2.6048   -1.2393 N   0  0  0  0  0  0  0  0  0  0  0  0
    0.7179    3.7830   -1.4757 C   0  0  0  0  0  0  0  0  0  0  0  0
    0.8435    4.4511   -2.7105 C   0  0  0  0  0  0  0  0  0  0  0  0
    0.1085    5.5917   -3.0236 C   0  0  0  0  0  0  0  0  0  0  0  0
   -0.7696    6.1187   -2.0736 C   0  0  0  0  0  0  0  0  0  0  0  0
   -1.6862    7.5616   -2.4307 Cl  0  0  0  0  0  0  0  0  0  0  0  0
   -0.9251    5.4907   -0.8372 C   0  0  0  0  0  0  0  0  0  0  0  0
   -0.2005    4.3309   -0.5526 C   0  0  0  0  0  0  0  0  0  0  0  0
   -0.5258    3.5380    0.9771 Cl  0  0  0  0  0  0  0  0  0  0  0  0
    4.4557    1.1854   -0.5764 C   0  0  0  0  0  0  0  0  0  0  0  0
    5.2014   -0.0614   -0.6286 C   0  0  0  0  0  0  0  0  0  0  0  0
    6.3552   -0.1636   -1.0048 O   0  0  0  0  0  0  0  0  0  0  0  0
    4.4613   -1.1887   -0.1989 N   0  0  0  0  0  0  0  0  0  0  0  0
    5.1122   -2.4981   -0.2005 C   0  0  0  0  0  0  0  0  0  0  0  0
    3.1468   -1.1649    0.2520 C   0  0  0  0  0  0  0  0  0  0  0  0
    2.5814   -2.1739    0.6273 O   0  0  0  0  0  0  0  0  0  0  0  0
    0.5143    0.7629    0.1119 H   0  0  0  0  0  0  0  0  0  0  0  0
    1.0978    0.4954    1.7877 H   0  0  0  0  0  0  0  0  0  0  0  0
    0.7493   -0.9059    0.7431 H   0  0  0  0  0  0  0  0  0  0  0  0
    3.1720    3.3594   -0.2165 H   0  0  0  0  0  0  0  0  0  0  0  0
    1.8954    2.6909    0.8149 H   0  0  0  0  0  0  0  0  0  0  0  0
    1.8859    2.2846   -2.0998 H   0  0  0  0  0  0  0  0  0  0  0  0
    1.5488    4.0546   -3.4465 H   0  0  0  0  0  0  0  0  0  0  0  0
    0.2271    6.0811   -3.9912 H   0  0  0  0  0  0  0  0  0  0  0  0
   -1.6239    5.8848   -0.0996 H   0  0  0  0  0  0  0  0  0  0  0  0
    4.9824    2.0850   -0.8910 H   0  0  0  0  0  0  0  0  0  0  0  0
    6.1261   -2.3580   -0.5889 H   0  0  0  0  0  0  0  0  0  0  0  0
    4.5492   -3.2010   -0.8310 H   0  0  0  0  0  0  0  0  0  0  0  0
    5.1437   -2.9095    0.8189 H   0  0  0  0  0  0  0  0  0  0  0  0
  1  2  1  0
  1 21  1  0
  1 22  1  0
  1 23  1  0
  2  3  1  0
  2 19  1  0
  3  4  1  0
  3 14  2  0
  4  5  1  0
  4 24  1  0
  4 25  1  0
  5  6  1  0
  5 26  1  0
  6  7  2  0
  6 12  1  0
  7  8  1  0
  7 27  1  0
  8  9  2  0
  8 28  1  0
  9 10  1  0
  9 11  1  0
 11 12  2  0
 11 29  1  0
 12 13  1  0
 14 15  1  0
 14 30  1  0
 15 16  2  0
 15 17  1  0
 17 18  1  0
 17 19  1  0
 18 31  1  0
 18 32  1  0
 18 33  1  0
 19 20  2  0
M  END

