
     RDKit          3D

 68 70  0  0  0  0  0  0  0  0999 V2000
    1.8749   -4.1099   -7.3524 C   0  0  0  0  0  0  0  0  0  0  0  0
    3.2147   -4.7350   -7.0177 C   0  0  0  0  0  0  0  0  0  0  0  0
    2.9844   -5.9834   -6.3638 O   0  0  0  0  0  0  0  0  0  0  0  0
    4.1080   -6.7238   -6.0762 C   0  0  0  0  0  0  0  0  0  0  0  0
    4.5534   -7.6566   -7.0202 C   0  0  0  0  0  0  0  0  0  0  0  0
    5.7023   -8.4160   -6.7985 C   0  0  0  0  0  0  0  0  0  0  0  0
    6.4083   -8.2433   -5.6038 C   0  0  0  0  0  0  0  0  0  0  0  0
    5.9496   -7.3443   -4.6426 C   0  0  0  0  0  0  0  0  0  0  0  0
    4.7927   -6.5604   -4.8446 C   0  0  0  0  0  0  0  0  0  0  0  0
    4.3632   -5.6793   -3.8381 N   0  0  0  0  0  0  0  0  0  0  0  0
    2.9619   -5.3755   -3.5917 C   0  0  0  0  0  0  0  0  0  0  0  0
    2.7053   -5.2808   -2.0854 C   0  0  0  0  0  0  0  0  0  0  0  0
    3.6395   -4.3127   -1.5000 N   0  0  0  0  0  0  0  0  0  0  0  0
    3.1827   -3.3815   -0.2124 S   0  0  1  0  0  0  0  0  0  0  0  0
    4.1555   -2.2798   -0.1042 O   0  0  0  0  0  0  0  0  0  0  0  0
    1.7565   -3.0909   -0.3505 O   0  0  0  0  0  0  0  0  0  0  0  0
    3.4015   -4.3847    1.2592 C   0  0  0  0  0  0  0  0  0  0  0  0
    3.4925   -5.7017    1.1098 N   0  0  0  0  0  0  0  0  0  0  0  0
    3.5290   -6.1937    2.3550 N   0  0  0  0  0  0  0  0  0  0  0  0
    3.6824   -7.6304    2.5668 C   0  0  0  0  0  0  0  0  0  0  0  0
    5.0970   -8.1266    2.2827 C   0  0  0  0  0  0  0  0  0  0  0  0
    3.4552   -5.2170    3.2915 C   0  0  0  0  0  0  0  0  0  0  0  0
    3.3738   -3.9986    2.6308 C   0  0  0  0  0  0  0  0  0  0  0  0
    3.2344   -2.7030    3.3718 C   0  0  0  0  0  0  0  0  0  0  0  0
    2.8833   -2.7202    4.5475 O   0  0  0  0  0  0  0  0  0  0  0  0
    3.5207   -1.5751    2.6752 N   0  0  0  0  0  0  0  0  0  0  0  0
    3.3166   -0.2423    3.2172 C   0  0  0  0  0  0  0  0  0  0  0  0
    2.3387    0.5971    2.3825 C   0  0  0  0  0  0  0  0  0  0  0  0
    0.9337   -0.0019    2.1839 C   0  0  1  0  0  0  0  0  0  0  0  0
    0.2130   -0.2727    3.5118 C   0  0  0  0  0  0  0  0  0  0  0  0
    0.0951    0.9070    1.2761 C   0  0  0  0  0  0  0  0  0  0  0  0
    5.0569   -4.5850   -1.7438 C   0  0  0  0  0  0  0  0  0  0  0  0
    5.2763   -4.7100   -3.2524 C   0  0  0  0  0  0  0  0  0  0  0  0
    2.0203   -3.1492   -7.8706 H   0  0  0  0  0  0  0  0  0  0  0  0
    1.2879   -3.9253   -6.4396 H   0  0  0  0  0  0  0  0  0  0  0  0
    1.2906   -4.7753   -8.0064 H   0  0  0  0  0  0  0  0  0  0  0  0
    3.8086   -4.0695   -6.3615 H   0  0  0  0  0  0  0  0  0  0  0  0
    3.8105   -4.9033   -7.9348 H   0  0  0  0  0  0  0  0  0  0  0  0
    3.9772   -7.7576   -7.9433 H   0  0  0  0  0  0  0  0  0  0  0  0
    6.0412   -9.1346   -7.5482 H   0  0  0  0  0  0  0  0  0  0  0  0
    7.3073   -8.8321   -5.4044 H   0  0  0  0  0  0  0  0  0  0  0  0
    6.4796   -7.2566   -3.6913 H   0  0  0  0  0  0  0  0  0  0  0  0
    2.3317   -6.1645   -4.0180 H   0  0  0  0  0  0  0  0  0  0  0  0
    2.6598   -4.4168   -4.0606 H   0  0  0  0  0  0  0  0  0  0  0  0
    2.8419   -6.2698   -1.6131 H   0  0  0  0  0  0  0  0  0  0  0  0
    1.6812   -4.9339   -1.8963 H   0  0  0  0  0  0  0  0  0  0  0  0
    2.9525   -8.1348    1.9157 H   0  0  0  0  0  0  0  0  0  0  0  0
    3.3925   -7.8303    3.6089 H   0  0  0  0  0  0  0  0  0  0  0  0
    5.3798   -7.9145    1.2410 H   0  0  0  0  0  0  0  0  0  0  0  0
    5.1522   -9.2148    2.4408 H   0  0  0  0  0  0  0  0  0  0  0  0
    5.8297   -7.6438    2.9479 H   0  0  0  0  0  0  0  0  0  0  0  0
    3.4545   -5.4161    4.3607 H   0  0  0  0  0  0  0  0  0  0  0  0
    3.8609   -1.6574    1.7166 H   0  0  0  0  0  0  0  0  0  0  0  0
    4.2860    0.2852    3.2745 H   0  0  0  0  0  0  0  0  0  0  0  0
    2.9618   -0.3715    4.2483 H   0  0  0  0  0  0  0  0  0  0  0  0
    2.7870    0.7810    1.3891 H   0  0  0  0  0  0  0  0  0  0  0  0
    2.2528    1.5891    2.8643 H   0  0  0  0  0  0  0  0  0  0  0  0
    1.0587   -0.9664    1.6595 H   0  0  0  0  0  0  0  0  0  0  0  0
    0.1004    0.6571    4.0978 H   0  0  0  0  0  0  0  0  0  0  0  0
    0.7486   -1.0042    4.1360 H   0  0  0  0  0  0  0  0  0  0  0  0
   -0.7985   -0.6722    3.3315 H   0  0  0  0  0  0  0  0  0  0  0  0
   -0.0710    1.8935    1.7438 H   0  0  0  0  0  0  0  0  0  0  0  0
   -0.8936    0.4647    1.0732 H   0  0  0  0  0  0  0  0  0  0  0  0
    0.5900    1.0764    0.3057 H   0  0  0  0  0  0  0  0  0  0  0  0
    5.3576   -5.5224   -1.2390 H   0  0  0  0  0  0  0  0  0  0  0  0
    5.6504   -3.7537   -1.3409 H   0  0  0  0  0  0  0  0  0  0  0  0
    6.3149   -5.0084   -3.4473 H   0  0  0  0  0  0  0  0  0  0  0  0
    5.1266   -3.7078   -3.7096 H   0  0  0  0  0  0  0  0  0  0  0  0
  1  2  1  0
  1 34  1  0
  1 35  1  0
  1 36  1  0
  2  3  1  0
  2 37  1  0
  2 38  1  0
  3  4  1  0
  4  5  2  0
  4  9  1  0
  5  6  1  0
  5 39  1  0
  6  7  2  0
  6 40  1  0
  7  8  1  0
  7 41  1  0
  8  9  2  0
  8 42  1  0
  9 10  1  0
 10 11  1  0
 10 33  1  0
 11 12  1  0
 11 43  1  0
 11 44  1  0
 12 13  1  0
 12 45  1  0
 12 46  1  0
 13 14  1  0
 13 32  1  0
 14 15  2  0
 14 16  2  0
 14 17  1  1
 17 18  2  0
 17 23  1  0
 18 19  1  0
 19 20  1  0
 19 22  1  0
 20 21  1  0
 20 47  1  0
 20 48  1  0
 21 49  1  0
 21 50  1  0
 21 51  1  0
 22 23  2  0
 22 52  1  0
 23 24  1  0
 24 25  2  0
 24 26  1  0
 26 27  1  0
 26 53  1  0
 27 28  1  0
 27 54  1  0
 27 55  1  0
 28 29  1  0
 28 56  1  0
 28 57  1  0
 29 30  1  0
 29 31  1  0
 29 58  1  6
 30 59  1  0
 30 60  1  0
 30 61  1  0
 31 62  1  0
 31 63  1  0
 31 64  1  0
 32 33  1  0
 32 65  1  0
 32 66  1  0
 33 67  1  0
 33 68  1  0
M  END

