
     RDKit          3D

 54 57  0  0  0  0  0  0  0  0999 V2000
    1.4664    0.1597    0.9611 C   0  0  0  0  0  0  0  0  0  0  0  0
    2.4205   -0.2198   -0.1877 C   0  0  1  0  0  0  0  0  0  0  0  0
    1.8193   -1.3175   -1.0736 C   0  0  0  0  0  0  0  0  0  0  0  0
    2.8984    0.9134   -0.9941 N   0  0  0  0  0  0  0  0  0  0  0  0
    1.8779    1.7303   -1.6391 C   0  0  0  0  0  0  0  0  0  0  0  0
    2.4974    2.6203   -2.7220 C   0  0  0  0  0  0  0  0  0  0  0  0
    3.6279    3.5035   -2.1832 C   0  0  2  0  0  0  0  0  0  0  0  0
    4.6159    2.6272   -1.3924 C   0  0  0  0  0  0  0  0  0  0  0  0
    3.9248    1.7255   -0.3622 C   0  0  0  0  0  0  0  0  0  0  0  0
    3.1200    4.6553   -1.2979 C   0  0  0  0  0  0  0  0  0  0  0  0
    2.1960    5.5696   -1.9604 N   0  0  0  0  0  0  0  0  0  0  0  0
    0.9969    5.8249   -1.3352 C   0  0  0  0  0  0  0  0  0  0  0  0
    0.7181    5.3568   -0.2372 O   0  0  0  0  0  0  0  0  0  0  0  0
   -0.0166    6.7105   -2.0180 C   0  0  0  0  0  0  0  0  0  0  0  0
   -0.7207    7.6326   -1.2289 C   0  0  0  0  0  0  0  0  0  0  0  0
   -1.7272    8.3962   -1.8144 C   0  0  0  0  0  0  0  0  0  0  0  0
   -2.0203    8.1878   -3.1673 C   0  0  0  0  0  0  0  0  0  0  0  0
   -1.3880    7.2873   -3.9218 N   0  0  0  0  0  0  0  0  0  0  0  0
   -0.4107    6.5738   -3.3591 C   0  0  0  0  0  0  0  0  0  0  0  0
    2.6723    6.2729   -3.1664 C   0  0  0  0  0  0  0  0  0  0  0  0
    4.1765    6.3997   -3.2201 C   0  0  0  0  0  0  0  0  0  0  0  0
    4.8302    7.6365   -3.2337 C   0  0  0  0  0  0  0  0  0  0  0  0
    6.2200    7.7128   -3.3773 C   0  0  0  0  0  0  0  0  0  0  0  0
    6.9681    6.5397   -3.5070 C   0  0  0  0  0  0  0  0  0  0  0  0
    6.3338    5.2940   -3.4786 C   0  0  0  0  0  0  0  0  0  0  0  0
    4.9448    5.2228   -3.3316 C   0  0  0  0  0  0  0  0  0  0  0  0
    4.3185    4.0092   -3.3658 O   0  0  0  0  0  0  0  0  0  0  0  0
    1.2558   -0.7171    1.5942 H   0  0  0  0  0  0  0  0  0  0  0  0
    0.5009    0.5315    0.5813 H   0  0  0  0  0  0  0  0  0  0  0  0
    1.8962    0.9405    1.6084 H   0  0  0  0  0  0  0  0  0  0  0  0
    3.3318   -0.6446    0.2694 H   0  0  0  0  0  0  0  0  0  0  0  0
    0.8582   -1.0117   -1.5182 H   0  0  0  0  0  0  0  0  0  0  0  0
    1.6264   -2.2266   -0.4821 H   0  0  0  0  0  0  0  0  0  0  0  0
    2.5102   -1.5711   -1.8918 H   0  0  0  0  0  0  0  0  0  0  0  0
    1.3181    2.3626   -0.9143 H   0  0  0  0  0  0  0  0  0  0  0  0
    1.1337    1.0729   -2.1128 H   0  0  0  0  0  0  0  0  0  0  0  0
    1.7198    3.2489   -3.1843 H   0  0  0  0  0  0  0  0  0  0  0  0
    2.9266    1.9879   -3.5143 H   0  0  0  0  0  0  0  0  0  0  0  0
    5.3722    3.2594   -0.8970 H   0  0  0  0  0  0  0  0  0  0  0  0
    5.1397    1.9934   -2.1243 H   0  0  0  0  0  0  0  0  0  0  0  0
    3.5280    2.3466    0.4746 H   0  0  0  0  0  0  0  0  0  0  0  0
    4.6780    1.0567    0.0858 H   0  0  0  0  0  0  0  0  0  0  0  0
    3.9853    5.2153   -0.9060 H   0  0  0  0  0  0  0  0  0  0  0  0
    2.5896    4.2500   -0.4294 H   0  0  0  0  0  0  0  0  0  0  0  0
   -0.4740    7.7275   -0.1691 H   0  0  0  0  0  0  0  0  0  0  0  0
   -2.2869    9.1336   -1.2345 H   0  0  0  0  0  0  0  0  0  0  0  0
   -2.8093    8.7704   -3.6580 H   0  0  0  0  0  0  0  0  0  0  0  0
    0.0717    5.8312   -4.0038 H   0  0  0  0  0  0  0  0  0  0  0  0
    2.2173    7.2707   -3.2044 H   0  0  0  0  0  0  0  0  0  0  0  0
    2.3514    5.7268   -4.0716 H   0  0  0  0  0  0  0  0  0  0  0  0
    4.2409    8.5538   -3.1449 H   0  0  0  0  0  0  0  0  0  0  0  0
    6.7145    8.6868   -3.3941 H   0  0  0  0  0  0  0  0  0  0  0  0
    8.0534    6.5916   -3.6263 H   0  0  0  0  0  0  0  0  0  0  0  0
    6.8978    4.3644   -3.5772 H   0  0  0  0  0  0  0  0  0  0  0  0
  1  2  1  0
  1 28  1  0
  1 29  1  0
  1 30  1  0
  2  3  1  0
  2  4  1  0
  2 31  1  1
  3 32  1  0
  3 33  1  0
  3 34  1  0
  4  5  1  0
  4  9  1  0
  5  6  1  0
  5 35  1  0
  5 36  1  0
  6  7  1  0
  6 37  1  0
  6 38  1  0
  7  8  1  0
  7 10  1  0
  7 27  1  6
  8  9  1  0
  8 39  1  0
  8 40  1  0
  9 41  1  0
  9 42  1  0
 10 11  1  0
 10 43  1  0
 10 44  1  0
 11 12  1  0
 11 20  1  0
 12 13  2  0
 12 14  1  0
 14 15  2  0
 14 19  1  0
 15 16  1  0
 15 45  1  0
 16 17  2  0
 16 46  1  0
 17 18  1  0
 17 47  1  0
 18 19  2  0
 19 48  1  0
 20 21  1  0
 20 49  1  0
 20 50  1  0
 21 22  1  0
 21 26  2  0
 22 23  2  0
 22 51  1  0
 23 24  1  0
 23 52  1  0
 24 25  2  0
 24 53  1  0
 25 26  1  0
 25 54  1  0
 26 27  1  0
M  END

