
     RDKit          3D

 35 38  0  0  0  0  0  0  0  0999 V2000
    0.9251   -0.0029   -0.3579 O   0  0  0  0  0  0  0  0  0  0  0  0
    2.0958   -0.1649   -0.1098 C   0  0  0  0  0  0  0  0  0  0  0  0
    2.6642    0.1135    1.1324 N   0  0  0  0  0  0  0  0  0  0  0  0
    2.0204    0.6199    2.2412 C   0  0  0  0  0  0  0  0  0  0  0  0
    0.7975    0.9890    2.4132 N   0  0  0  0  0  0  0  0  0  0  0  0
    0.7612    1.4135    3.7401 C   0  0  0  0  0  0  0  0  0  0  0  0
   -0.2813    1.9259    4.5197 C   0  0  0  0  0  0  0  0  0  0  0  0
    0.0109    2.2642    5.8446 C   0  0  0  0  0  0  0  0  0  0  0  0
    1.3009    2.0994    6.3835 C   0  0  0  0  0  0  0  0  0  0  0  0
    2.3551    1.5874    5.6153 C   0  0  0  0  0  0  0  0  0  0  0  0
    2.0399    1.2601    4.3047 C   0  0  0  0  0  0  0  0  0  0  0  0
    2.8532    0.7447    3.3246 O   0  0  0  0  0  0  0  0  0  0  0  0
    3.0563   -0.7267   -1.1747 C   0  0  2  0  0  0  0  0  0  0  0  0
    2.7355   -2.2161   -1.4328 C   0  0  0  0  0  0  0  0  0  0  0  0
    3.0853   -3.0986   -0.2323 C   0  0  0  0  0  0  0  0  0  0  0  0
    4.4058   -2.7625    0.2970 N   0  0  0  0  0  0  0  0  0  0  0  0
    5.1345   -3.4579    1.2237 C   0  0  0  0  0  0  0  0  0  0  0  0
    6.2023   -2.7988    1.6121 N   0  0  0  0  0  0  0  0  0  0  0  0
    6.1727   -1.6156    0.9208 C   0  0  0  0  0  0  0  0  0  0  0  0
    5.0660   -1.5600    0.0935 C   0  0  0  0  0  0  0  0  0  0  0  0
    4.5673   -0.5695   -0.9188 C   0  0  0  0  0  0  0  0  0  0  0  0
    3.6423   -0.1243    1.2866 H   0  0  0  0  0  0  0  0  0  0  0  0
   -1.2801    2.0519    4.0983 H   0  0  0  0  0  0  0  0  0  0  0  0
   -0.7808    2.6673    6.4809 H   0  0  0  0  0  0  0  0  0  0  0  0
    1.4861    2.3762    7.4240 H   0  0  0  0  0  0  0  0  0  0  0  0
    3.3596    1.4535    6.0199 H   0  0  0  0  0  0  0  0  0  0  0  0
    2.7865   -0.1666   -2.0827 H   0  0  0  0  0  0  0  0  0  0  0  0
    3.3029   -2.5457   -2.3192 H   0  0  0  0  0  0  0  0  0  0  0  0
    1.6666   -2.3309   -1.6646 H   0  0  0  0  0  0  0  0  0  0  0  0
    3.0734   -4.1624   -0.5157 H   0  0  0  0  0  0  0  0  0  0  0  0
    2.3338   -2.9670    0.5660 H   0  0  0  0  0  0  0  0  0  0  0  0
    4.8237   -4.4416    1.5791 H   0  0  0  0  0  0  0  0  0  0  0  0
    6.9530   -0.8626    1.0344 H   0  0  0  0  0  0  0  0  0  0  0  0
    5.0839   -0.7284   -1.8829 H   0  0  0  0  0  0  0  0  0  0  0  0
    4.8225    0.4579   -0.6130 H   0  0  0  0  0  0  0  0  0  0  0  0
  1  2  2  0
  2  3  1  0
  2 13  1  0
  3  4  1  0
  3 22  1  0
  4  5  2  0
  4 12  1  0
  5  6  1  0
  6  7  2  0
  6 11  1  0
  7  8  1  0
  7 23  1  0
  8  9  2  0
  8 24  1  0
  9 10  1  0
  9 25  1  0
 10 11  2  0
 10 26  1  0
 11 12  1  0
 13 14  1  0
 13 21  1  0
 13 27  1  6
 14 15  1  0
 14 28  1  0
 14 29  1  0
 15 16  1  0
 15 30  1  0
 15 31  1  0
 16 17  1  0
 16 20  1  0
 17 18  2  0
 17 32  1  0
 18 19  1  0
 19 20  2  0
 19 33  1  0
 20 21  1  0
 21 34  1  0
 21 35  1  0
M  END

