
     RDKit          3D

 50 52  0  0  0  0  0  0  0  0999 V2000
    5.9310    5.5368   -7.6483 C   0  0  0  0  0  0  0  0  0  0  0  0
    6.0496    5.1454   -6.2994 O   0  0  0  0  0  0  0  0  0  0  0  0
    5.7319    3.8705   -5.9477 C   0  0  0  0  0  0  0  0  0  0  0  0
    5.2568    2.8951   -6.8350 C   0  0  0  0  0  0  0  0  0  0  0  0
    4.9850    1.5967   -6.3906 C   0  0  0  0  0  0  0  0  0  0  0  0
    5.1798    1.2387   -5.0529 C   0  0  0  0  0  0  0  0  0  0  0  0
    4.8414   -0.1559   -4.5544 C   0  0  0  0  0  0  0  0  0  0  0  0
    5.2222   -1.2076   -5.4910 N   0  0  0  0  0  0  0  0  0  0  0  0
    6.6573   -1.4142   -5.6564 C   0  0  0  0  0  0  0  0  0  0  0  0
    7.2904   -2.2486   -4.5310 C   0  0  0  0  0  0  0  0  0  0  0  0
    6.5435   -3.5020   -4.3904 N   0  0  0  0  0  0  0  0  0  0  0  0
    7.3162   -4.8242   -3.6929 S   0  0  1  0  0  0  0  0  0  0  0  0
    6.4093   -5.9615   -3.8582 O   0  0  0  0  0  0  0  0  0  0  0  0
    8.6799   -4.8286   -4.2244 O   0  0  0  0  0  0  0  0  0  0  0  0
    7.4320   -4.4852   -1.9265 C   0  0  0  0  0  0  0  0  0  0  0  0
    6.3937   -4.8911   -1.0806 C   0  0  0  0  0  0  0  0  0  0  0  0
    6.4725   -4.5939    0.2825 C   0  0  0  0  0  0  0  0  0  0  0  0
    7.5798   -3.9051    0.7893 C   0  0  0  0  0  0  0  0  0  0  0  0
    8.6185   -3.5178   -0.0641 C   0  0  0  0  0  0  0  0  0  0  0  0
    8.5520   -3.8093   -1.4291 C   0  0  0  0  0  0  0  0  0  0  0  0
    5.1004   -3.3508   -4.1929 C   0  0  0  0  0  0  0  0  0  0  0  0
    4.5380   -2.4826   -5.3310 C   0  0  0  0  0  0  0  0  0  0  0  0
    5.6504    2.2202   -4.1681 C   0  0  0  0  0  0  0  0  0  0  0  0
    5.9236    3.5230   -4.5877 C   0  0  0  0  0  0  0  0  0  0  0  0
    6.4413    4.4065   -3.6835 O   0  0  0  0  0  0  0  0  0  0  0  0
    5.6660    5.5525   -3.3671 C   0  0  0  0  0  0  0  0  0  0  0  0
    6.2567    6.5845   -7.7000 H   0  0  0  0  0  0  0  0  0  0  0  0
    4.8884    5.4685   -8.0088 H   0  0  0  0  0  0  0  0  0  0  0  0
    6.5747    4.9292   -8.3095 H   0  0  0  0  0  0  0  0  0  0  0  0
    5.1049    3.1385   -7.8870 H   0  0  0  0  0  0  0  0  0  0  0  0
    4.6302    0.8422   -7.0959 H   0  0  0  0  0  0  0  0  0  0  0  0
    3.7471   -0.2303   -4.4202 H   0  0  0  0  0  0  0  0  0  0  0  0
    5.2738   -0.2788   -3.5377 H   0  0  0  0  0  0  0  0  0  0  0  0
    7.1622   -0.4386   -5.7230 H   0  0  0  0  0  0  0  0  0  0  0  0
    6.8251   -1.9423   -6.6112 H   0  0  0  0  0  0  0  0  0  0  0  0
    7.2917   -1.6777   -3.5795 H   0  0  0  0  0  0  0  0  0  0  0  0
    8.3307   -2.4904   -4.7856 H   0  0  0  0  0  0  0  0  0  0  0  0
    5.5521   -5.4528   -1.4895 H   0  0  0  0  0  0  0  0  0  0  0  0
    5.6701   -4.9110    0.9533 H   0  0  0  0  0  0  0  0  0  0  0  0
    7.6384   -3.6781    1.8567 H   0  0  0  0  0  0  0  0  0  0  0  0
    9.4907   -2.9949    0.3360 H   0  0  0  0  0  0  0  0  0  0  0  0
    9.3658   -3.5410   -2.1049 H   0  0  0  0  0  0  0  0  0  0  0  0
    4.8774   -2.8880   -3.2087 H   0  0  0  0  0  0  0  0  0  0  0  0
    4.6395   -4.3473   -4.2162 H   0  0  0  0  0  0  0  0  0  0  0  0
    3.4638   -2.3053   -5.1622 H   0  0  0  0  0  0  0  0  0  0  0  0
    4.6388   -3.0512   -6.2723 H   0  0  0  0  0  0  0  0  0  0  0  0
    5.8285    1.9889   -3.1145 H   0  0  0  0  0  0  0  0  0  0  0  0
    6.2126    6.0949   -2.5825 H   0  0  0  0  0  0  0  0  0  0  0  0
    4.6726    5.2661   -2.9748 H   0  0  0  0  0  0  0  0  0  0  0  0
    5.5332    6.2131   -4.2381 H   0  0  0  0  0  0  0  0  0  0  0  0
  1  2  1  0
  1 27  1  0
  1 28  1  0
  1 29  1  0
  2  3  1  0
  3  4  2  0
  3 24  1  0
  4  5  1  0
  4 30  1  0
  5  6  2  0
  5 31  1  0
  6  7  1  0
  6 23  1  0
  7  8  1  0
  7 32  1  0
  7 33  1  0
  8  9  1  0
  8 22  1  0
  9 10  1  0
  9 34  1  0
  9 35  1  0
 10 11  1  0
 10 36  1  0
 10 37  1  0
 11 12  1  0
 11 21  1  0
 12 13  2  0
 12 14  2  0
 12 15  1  1
 15 16  2  0
 15 20  1  0
 16 17  1  0
 16 38  1  0
 17 18  2  0
 17 39  1  0
 18 19  1  0
 18 40  1  0
 19 20  2  0
 19 41  1  0
 20 42  1  0
 21 22  1  0
 21 43  1  0
 21 44  1  0
 22 45  1  0
 22 46  1  0
 23 24  2  0
 23 47  1  0
 24 25  1  0
 25 26  1  0
 26 48  1  0
 26 49  1  0
 26 50  1  0
M  END

