
     RDKit          3D

 46 48  0  0  0  0  0  0  0  0999 V2000
   10.9760    4.2107    3.0442 C   0  0  0  0  0  0  0  0  0  0  0  0
    9.9717    3.3446    2.3478 C   0  0  0  0  0  0  0  0  0  0  0  0
    8.7269    3.2220    2.7031 N   0  0  0  0  0  0  0  0  0  0  0  0
    8.0348    2.3512    1.8933 C   0  0  0  0  0  0  0  0  0  0  0  0
    6.5666    2.1438    2.1747 C   0  0  1  0  0  0  0  0  0  0  0  0
    5.6955    3.3467    1.7410 C   0  0  0  0  0  0  0  0  0  0  0  0
    4.3417    2.7155    1.4037 C   0  0  0  0  0  0  0  0  0  0  0  0
    4.7425    1.3892    0.7445 C   0  0  0  0  0  0  0  0  0  0  0  0
    5.9739    1.0092    1.4480 N   0  0  0  0  0  0  0  0  0  0  0  0
    6.2481   -0.2731    1.9045 C   0  0  0  0  0  0  0  0  0  0  0  0
    6.9857   -0.4824    2.8576 O   0  0  0  0  0  0  0  0  0  0  0  0
    5.6332   -1.2947    1.2099 N   0  0  0  0  0  0  0  0  0  0  0  0
    5.8422   -2.6922    1.5882 C   0  0  1  0  0  0  0  0  0  0  0  0
    4.7345   -3.5758    0.9937 C   0  0  0  0  0  0  0  0  0  0  0  0
    4.8675   -3.7779   -0.5250 C   0  0  0  0  0  0  0  0  0  0  0  0
    6.2616   -4.2875   -0.9313 C   0  0  2  0  0  0  0  0  0  0  0  0
    6.4362   -5.7687   -0.5618 C   0  0  0  0  0  0  0  0  0  0  0  0
    5.5566   -6.4737   -0.1463 O   0  0  0  0  0  0  0  0  0  0  0  0
    7.6705   -6.2831   -0.7687 O   0  0  0  0  0  0  0  0  0  0  0  0
    7.3627   -3.3748   -0.3421 C   0  0  0  0  0  0  0  0  0  0  0  0
    7.2338   -3.2190    1.1765 C   0  0  0  0  0  0  0  0  0  0  0  0
    8.7686    1.7928    0.8806 C   0  0  0  0  0  0  0  0  0  0  0  0
   10.4007    2.3695    0.9468 S   0  0  0  0  0  0  0  0  0  0  0  0
   10.4673    4.7508    3.8540 H   0  0  0  0  0  0  0  0  0  0  0  0
   11.4300    4.9431    2.3574 H   0  0  0  0  0  0  0  0  0  0  0  0
   11.7928    3.6122    3.4800 H   0  0  0  0  0  0  0  0  0  0  0  0
    6.4742    1.9738    3.2613 H   0  0  0  0  0  0  0  0  0  0  0  0
    6.1312    3.8127    0.8421 H   0  0  0  0  0  0  0  0  0  0  0  0
    5.6486    4.1166    2.5236 H   0  0  0  0  0  0  0  0  0  0  0  0
    3.7154    3.3435    0.7521 H   0  0  0  0  0  0  0  0  0  0  0  0
    3.7727    2.5128    2.3259 H   0  0  0  0  0  0  0  0  0  0  0  0
    4.9185    1.5268   -0.3403 H   0  0  0  0  0  0  0  0  0  0  0  0
    3.9717    0.6123    0.8627 H   0  0  0  0  0  0  0  0  0  0  0  0
    5.2174   -1.0970    0.3093 H   0  0  0  0  0  0  0  0  0  0  0  0
    5.7861   -2.7226    2.6864 H   0  0  0  0  0  0  0  0  0  0  0  0
    3.7479   -3.1472    1.2353 H   0  0  0  0  0  0  0  0  0  0  0  0
    4.7797   -4.5625    1.4791 H   0  0  0  0  0  0  0  0  0  0  0  0
    4.6791   -2.8301   -1.0615 H   0  0  0  0  0  0  0  0  0  0  0  0
    4.1020   -4.4877   -0.8700 H   0  0  0  0  0  0  0  0  0  0  0  0
    6.3420   -4.2611   -2.0349 H   0  0  0  0  0  0  0  0  0  0  0  0
    8.2719   -5.5999   -1.0971 H   0  0  0  0  0  0  0  0  0  0  0  0
    7.2775   -2.3848   -0.8223 H   0  0  0  0  0  0  0  0  0  0  0  0
    8.3755   -3.7300   -0.6052 H   0  0  0  0  0  0  0  0  0  0  0  0
    8.0008   -2.5366    1.5711 H   0  0  0  0  0  0  0  0  0  0  0  0
    7.3958   -4.1957    1.6664 H   0  0  0  0  0  0  0  0  0  0  0  0
    8.4424    1.0753    0.1319 H   0  0  0  0  0  0  0  0  0  0  0  0
  1  2  1  0
  1 24  1  0
  1 25  1  0
  1 26  1  0
  2  3  2  0
  2 23  1  0
  3  4  1  0
  4  5  1  0
  4 22  2  0
  5  6  1  0
  5  9  1  0
  5 27  1  1
  6  7  1  0
  6 28  1  0
  6 29  1  0
  7  8  1  0
  7 30  1  0
  7 31  1  0
  8  9  1  0
  8 32  1  0
  8 33  1  0
  9 10  1  0
 10 11  2  0
 10 12  1  0
 12 13  1  0
 12 34  1  0
 13 14  1  0
 13 21  1  0
 13 35  1  1
 14 15  1  0
 14 36  1  0
 14 37  1  0
 15 16  1  0
 15 38  1  0
 15 39  1  0
 16 17  1  0
 16 20  1  0
 16 40  1  6
 17 18  2  0
 17 19  1  0
 19 41  1  0
 20 21  1  0
 20 42  1  0
 20 43  1  0
 21 44  1  0
 21 45  1  0
 22 23  1  0
 22 46  1  0
M  END

