
     RDKit          3D

 53 57  0  0  0  0  0  0  0  0999 V2000
    3.1736    0.1502    2.0916 C   0  0  0  0  0  0  0  0  0  0  0  0
    2.7343    0.0577    0.7395 O   0  0  0  0  0  0  0  0  0  0  0  0
    3.2239   -1.0248    0.0539 C   0  0  0  0  0  0  0  0  0  0  0  0
    4.5187   -0.9331   -0.5151 C   0  0  0  0  0  0  0  0  0  0  0  0
    5.2326    0.2659   -0.4184 N   0  0  0  0  0  0  0  0  0  0  0  0
    4.6667    1.4646   -1.0487 C   0  0  0  0  0  0  0  0  0  0  0  0
    5.1334    2.7340   -0.3362 C   0  0  0  0  0  0  0  0  0  0  0  0
    6.6608    2.7772   -0.2286 C   0  0  0  0  0  0  0  0  0  0  0  0
    7.2165    1.4912    0.4067 C   0  0  2  0  0  0  0  0  0  0  0  0
    6.8361    1.4271    1.4428 H   0  0  0  0  0  0  0  0  0  0  0  0
    8.6714    1.4069    0.4745 N   0  0  0  0  0  0  0  0  0  0  0  0
    6.6927    0.2595   -0.3470 C   0  0  0  0  0  0  0  0  0  0  0  0
    5.0341   -2.1051   -1.1240 C   0  0  0  0  0  0  0  0  0  0  0  0
    6.2391   -2.0540   -1.7201 F   0  0  0  0  0  0  0  0  0  0  0  0
    4.3507   -3.3006   -1.1194 C   0  0  0  0  0  0  0  0  0  0  0  0
    3.0574   -3.3737   -0.5817 C   0  0  0  0  0  0  0  0  0  0  0  0
    2.3889   -4.6901   -0.5165 C   0  0  0  0  0  0  0  0  0  0  0  0
    2.8804   -5.7279   -0.9886 O   0  0  0  0  0  0  0  0  0  0  0  0
    1.1431   -4.6730    0.2001 C   0  0  0  0  0  0  0  0  0  0  0  0
    0.5541   -3.5007    0.5840 C   0  0  0  0  0  0  0  0  0  0  0  0
    1.1103   -2.2618    0.4092 N   0  0  0  0  0  0  0  0  0  0  0  0
    0.2613   -1.0784    0.4737 C   0  0  1  0  0  0  0  0  0  0  0  0
    0.1611   -0.1675   -0.7157 C   0  0  0  0  0  0  0  0  0  0  0  0
   -1.0067   -1.0358   -0.3496 C   0  0  0  0  0  0  0  0  0  0  0  0
    2.4489   -2.2075   -0.0478 C   0  0  0  0  0  0  0  0  0  0  0  0
   -1.0190   -3.7339    1.3911 S   0  0  0  0  0  0  0  0  0  0  0  0
   -1.0862   -5.4861    0.7540 C   0  0  1  0  0  0  0  0  0  0  0  0
   -1.8285   -5.5230   -0.5080 C   0  0  0  0  0  0  0  0  0  0  0  0
   -2.4461   -5.5191   -1.4882 N   0  0  0  0  0  0  0  0  0  0  0  0
    0.4008   -5.9264    0.5995 C   0  0  1  0  0  0  0  0  0  0  0  0
    0.5199   -6.9774   -0.3032 O   0  0  0  0  0  0  0  0  0  0  0  0
    2.7321    1.0669    2.5075 H   0  0  0  0  0  0  0  0  0  0  0  0
    4.2718    0.2165    2.1510 H   0  0  0  0  0  0  0  0  0  0  0  0
    2.8295   -0.7175    2.6823 H   0  0  0  0  0  0  0  0  0  0  0  0
    3.5730    1.3970   -1.0226 H   0  0  0  0  0  0  0  0  0  0  0  0
    4.9754    1.5060   -2.1162 H   0  0  0  0  0  0  0  0  0  0  0  0
    4.6870    2.7610    0.6729 H   0  0  0  0  0  0  0  0  0  0  0  0
    4.7547    3.6165   -0.8783 H   0  0  0  0  0  0  0  0  0  0  0  0
    6.9898    3.6571    0.3513 H   0  0  0  0  0  0  0  0  0  0  0  0
    7.1005    2.8824   -1.2390 H   0  0  0  0  0  0  0  0  0  0  0  0
    9.0448    2.1636    1.0477 H   0  0  0  0  0  0  0  0  0  0  0  0
    9.0754    1.5316   -0.4560 H   0  0  0  0  0  0  0  0  0  0  0  0
    7.0347   -0.6443    0.1723 H   0  0  0  0  0  0  0  0  0  0  0  0
    7.1517    0.2436   -1.3579 H   0  0  0  0  0  0  0  0  0  0  0  0
    4.7907   -4.2007   -1.5515 H   0  0  0  0  0  0  0  0  0  0  0  0
    0.2346   -0.6025    1.4589 H   0  0  0  0  0  0  0  0  0  0  0  0
    0.7313   -0.4404   -1.6076 H   0  0  0  0  0  0  0  0  0  0  0  0
    0.1286    0.9054   -0.5126 H   0  0  0  0  0  0  0  0  0  0  0  0
   -1.2286   -1.8894   -0.9946 H   0  0  0  0  0  0  0  0  0  0  0  0
   -1.8884   -0.5879    0.1164 H   0  0  0  0  0  0  0  0  0  0  0  0
   -1.6157   -6.0919    1.5033 H   0  0  0  0  0  0  0  0  0  0  0  0
    0.7397   -6.2297    1.6166 H   0  0  0  0  0  0  0  0  0  0  0  0
    1.4024   -6.8733   -0.7224 H   0  0  0  0  0  0  0  0  0  0  0  0
  1  2  1  0
  1 32  1  0
  1 33  1  0
  1 34  1  0
  2  3  1  0
  3  4  2  0
  3 25  1  0
  4  5  1  0
  4 13  1  0
  5  6  1  0
  5 12  1  0
  6  7  1  0
  6 35  1  0
  6 36  1  0
  7  8  1  0
  7 37  1  0
  7 38  1  0
  8  9  1  0
  8 39  1  0
  8 40  1  0
  9 10  1  1
  9 11  1  0
  9 12  1  0
 11 41  1  0
 11 42  1  0
 12 43  1  0
 12 44  1  0
 13 14  1  0
 13 15  2  0
 15 16  1  0
 15 45  1  0
 16 17  1  0
 16 25  2  0
 17 18  2  0
 17 19  1  0
 19 20  2  0
 19 30  1  0
 20 21  1  0
 20 26  1  0
 21 22  1  0
 21 25  1  0
 22 23  1  0
 22 24  1  0
 22 46  1  1
 23 24  1  0
 23 47  1  0
 23 48  1  0
 24 49  1  0
 24 50  1  0
 26 27  1  0
 27 28  1  0
 27 30  1  0
 27 51  1  1
 28 29  3  0
 30 31  1  0
 30 52  1  1
 31 53  1  0
M  END

