
     RDKit          3D

 99111  0  0  0  0  0  0  0  0999 V2000
   -0.9144    0.9154   -1.8657 C   0  0  0  0  0  0  0  0  0  0  0  0
   -0.2645    1.9925   -1.2532 C   0  0  0  0  0  0  0  0  0  0  0  0
    1.0832    1.8928   -0.9077 C   0  0  0  0  0  0  0  0  0  0  0  0
    1.7990    0.7115   -1.1715 C   0  0  0  0  0  0  0  0  0  0  0  0
    3.2341    0.6043   -0.8041 C   0  0  0  0  0  0  0  0  0  0  0  0
    3.8184    1.6567   -0.2173 N   0  0  0  0  0  0  0  0  0  0  0  0
    5.1128    1.5236    0.0987 C   0  0  0  0  0  0  0  0  0  0  0  0
    5.7983    2.6684    0.7512 C   0  0  0  0  0  0  0  0  0  0  0  0
    5.0952    3.8539    1.0298 C   0  0  0  0  0  0  0  0  0  0  0  0
    5.7397    4.9284    1.6427 C   0  0  0  0  0  0  0  0  0  0  0  0
    7.0932    4.8335    1.9848 C   0  0  0  0  0  0  0  0  0  0  0  0
    7.8001    3.6575    1.7109 C   0  0  0  0  0  0  0  0  0  0  0  0
    7.1583    2.5812    1.0983 C   0  0  0  0  0  0  0  0  0  0  0  0
    5.8234    0.4130   -0.1429 N   0  0  0  0  0  0  0  0  0  0  0  0
    5.1662   -0.5933   -0.7309 C   0  0  0  0  0  0  0  0  0  0  0  0
    5.9156   -1.8452   -1.0156 C   0  0  0  0  0  0  0  0  0  0  0  0
    7.2693   -1.9657   -0.6584 C   0  0  0  0  0  0  0  0  0  0  0  0
    7.9717   -3.1402   -0.9174 C   0  0  0  0  0  0  0  0  0  0  0  0
    7.3350   -4.2169   -1.5551 C   0  0  0  0  0  0  0  0  0  0  0  0
    8.0505   -5.4123   -1.8271 N   0  0  0  0  0  0  0  0  0  0  0  0
    7.6827   -6.6974   -1.4176 C   0  0  0  0  0  0  0  0  0  0  0  0
    6.5925   -7.1121   -0.6420 C   0  0  0  0  0  0  0  0  0  0  0  0
    6.4756   -8.4689   -0.3480 C   0  0  0  0  0  0  0  0  0  0  0  0
    7.4141   -9.4109   -0.8246 C   0  0  0  0  0  0  0  0  0  0  0  0
    7.2507  -10.7887   -0.5087 N   0  0  0  0  0  0  0  0  0  0  0  0
    8.1339  -11.5650    0.2461 C   0  0  0  0  0  0  0  0  0  0  0  0
    9.3336  -11.1967    0.8683 C   0  0  0  0  0  0  0  0  0  0  0  0
   10.0240  -12.1767    1.5825 C   0  0  0  0  0  0  0  0  0  0  0  0
    9.5359  -13.4937    1.6818 C   0  0  0  0  0  0  0  0  0  0  0  0
    8.3367  -13.8536    1.0684 C   0  0  0  0  0  0  0  0  0  0  0  0
    7.6218  -12.8880    0.3444 C   0  0  0  0  0  0  0  0  0  0  0  0
    6.3701  -12.9058   -0.3875 C   0  0  0  0  0  0  0  0  0  0  0  0
    5.4181  -13.8993   -0.6592 C   0  0  0  0  0  0  0  0  0  0  0  0
    4.3009  -13.5787   -1.4294 C   0  0  0  0  0  0  0  0  0  0  0  0
    4.1296  -12.2758   -1.9349 C   0  0  0  0  0  0  0  0  0  0  0  0
    5.0610  -11.2683   -1.6801 C   0  0  0  0  0  0  0  0  0  0  0  0
    6.1770  -11.5925   -0.8980 C   0  0  0  0  0  0  0  0  0  0  0  0
    8.5027   -8.9915   -1.5945 C   0  0  0  0  0  0  0  0  0  0  0  0
    8.6497   -7.6288   -1.8829 C   0  0  0  0  0  0  0  0  0  0  0  0
    9.6449   -6.8673   -2.6118 C   0  0  0  0  0  0  0  0  0  0  0  0
   10.8167   -7.2199   -3.2931 C   0  0  0  0  0  0  0  0  0  0  0  0
   11.5597   -6.2226   -3.9310 C   0  0  0  0  0  0  0  0  0  0  0  0
   12.7469   -6.5588   -4.6398 N   0  0  0  0  0  0  0  0  0  0  0  0
   12.8221   -7.3862   -5.7632 C   0  0  0  0  0  0  0  0  0  0  0  0
   11.7966   -8.0458   -6.4526 C   0  0  0  0  0  0  0  0  0  0  0  0
   12.1475   -8.8087   -7.5671 C   0  0  0  0  0  0  0  0  0  0  0  0
   13.4855   -8.9145   -7.9927 C   0  0  0  0  0  0  0  0  0  0  0  0
   14.5019   -8.2491   -7.3086 C   0  0  0  0  0  0  0  0  0  0  0  0
   14.1772   -7.4746   -6.1851 C   0  0  0  0  0  0  0  0  0  0  0  0
   14.9526   -6.6602   -5.2695 C   0  0  0  0  0  0  0  0  0  0  0  0
   16.3177   -6.3587   -5.1559 C   0  0  0  0  0  0  0  0  0  0  0  0
   16.7473   -5.5292   -4.1207 C   0  0  0  0  0  0  0  0  0  0  0  0
   15.8257   -5.0030   -3.1953 C   0  0  0  0  0  0  0  0  0  0  0  0
   14.4623   -5.2866   -3.2849 C   0  0  0  0  0  0  0  0  0  0  0  0
   14.0341   -6.1129   -4.3319 C   0  0  0  0  0  0  0  0  0  0  0  0
   11.1316   -4.8773   -3.8840 C   0  0  0  0  0  0  0  0  0  0  0  0
    9.9808   -4.5034   -3.1935 C   0  0  0  0  0  0  0  0  0  0  0  0
    9.2419   -5.5060   -2.5523 C   0  0  0  0  0  0  0  0  0  0  0  0
    5.9845   -4.1011   -1.9215 C   0  0  0  0  0  0  0  0  0  0  0  0
    5.2830   -2.9296   -1.6470 C   0  0  0  0  0  0  0  0  0  0  0  0
    3.8749   -0.5410   -1.0773 N   0  0  0  0  0  0  0  0  0  0  0  0
    1.1383   -0.3664   -1.7873 C   0  0  0  0  0  0  0  0  0  0  0  0
   -0.2095   -0.2636   -2.1315 C   0  0  0  0  0  0  0  0  0  0  0  0
   -1.9707    0.9948   -2.1360 H   0  0  0  0  0  0  0  0  0  0  0  0
   -0.8121    2.9149   -1.0442 H   0  0  0  0  0  0  0  0  0  0  0  0
    1.6010    2.7249   -0.4302 H   0  0  0  0  0  0  0  0  0  0  0  0
    4.0411    3.9152    0.7583 H   0  0  0  0  0  0  0  0  0  0  0  0
    5.1845    5.8454    1.8553 H   0  0  0  0  0  0  0  0  0  0  0  0
    7.5972    5.6764    2.4650 H   0  0  0  0  0  0  0  0  0  0  0  0
    8.8573    3.5801    1.9766 H   0  0  0  0  0  0  0  0  0  0  0  0
    7.6983    1.6598    0.8796 H   0  0  0  0  0  0  0  0  0  0  0  0
    7.7576   -1.1276   -0.1609 H   0  0  0  0  0  0  0  0  0  0  0  0
    9.0159   -3.2353   -0.6139 H   0  0  0  0  0  0  0  0  0  0  0  0
    5.8613   -6.3987   -0.2599 H   0  0  0  0  0  0  0  0  0  0  0  0
    5.6473   -8.8200    0.2704 H   0  0  0  0  0  0  0  0  0  0  0  0
    9.7161  -10.1769    0.8003 H   0  0  0  0  0  0  0  0  0  0  0  0
   10.9632  -11.9132    2.0758 H   0  0  0  0  0  0  0  0  0  0  0  0
   10.1024  -14.2373    2.2474 H   0  0  0  0  0  0  0  0  0  0  0  0
    7.9564  -14.8749    1.1520 H   0  0  0  0  0  0  0  0  0  0  0  0
    5.5525  -14.9132   -0.2735 H   0  0  0  0  0  0  0  0  0  0  0  0
    3.5522  -14.3441   -1.6470 H   0  0  0  0  0  0  0  0  0  0  0  0
    3.2502  -12.0466   -2.5425 H   0  0  0  0  0  0  0  0  0  0  0  0
    4.9242  -10.2622   -2.0802 H   0  0  0  0  0  0  0  0  0  0  0  0
    9.2229   -9.7256   -1.9611 H   0  0  0  0  0  0  0  0  0  0  0  0
   11.1550   -8.2573   -3.3321 H   0  0  0  0  0  0  0  0  0  0  0  0
   10.7566   -7.9649   -6.1321 H   0  0  0  0  0  0  0  0  0  0  0  0
   11.3645   -9.3334   -8.1207 H   0  0  0  0  0  0  0  0  0  0  0  0
   13.7261   -9.5217   -8.8686 H   0  0  0  0  0  0  0  0  0  0  0  0
   15.5391   -8.3274   -7.6445 H   0  0  0  0  0  0  0  0  0  0  0  0
   17.0358   -6.7716   -5.8690 H   0  0  0  0  0  0  0  0  0  0  0  0
   17.8081   -5.2867   -4.0224 H   0  0  0  0  0  0  0  0  0  0  0  0
   16.1839   -4.3602   -2.3869 H   0  0  0  0  0  0  0  0  0  0  0  0
   13.7548   -4.8797   -2.5604 H   0  0  0  0  0  0  0  0  0  0  0  0
   11.7178   -4.1213   -4.4099 H   0  0  0  0  0  0  0  0  0  0  0  0
    9.6624   -3.4604   -3.1734 H   0  0  0  0  0  0  0  0  0  0  0  0
    5.4929   -4.9295   -2.4350 H   0  0  0  0  0  0  0  0  0  0  0  0
    4.2351   -2.8330   -1.9318 H   0  0  0  0  0  0  0  0  0  0  0  0
    1.6983   -1.2797   -1.9891 H   0  0  0  0  0  0  0  0  0  0  0  0
   -0.7140   -1.1069   -2.6098 H   0  0  0  0  0  0  0  0  0  0  0  0
  1  2  2  0
  1 63  1  0
  1 64  1  0
  2  3  1  0
  2 65  1  0
  3  4  2  0
  3 66  1  0
  4  5  1  0
  4 62  1  0
  5  6  2  0
  5 61  1  0
  6  7  1  0
  7  8  1  0
  7 14  2  0
  8  9  2  0
  8 13  1  0
  9 10  1  0
  9 67  1  0
 10 11  2  0
 10 68  1  0
 11 12  1  0
 11 69  1  0
 12 13  2  0
 12 70  1  0
 13 71  1  0
 14 15  1  0
 15 16  1  0
 15 61  2  0
 16 17  2  0
 16 60  1  0
 17 18  1  0
 17 72  1  0
 18 19  2  0
 18 73  1  0
 19 20  1  0
 19 59  1  0
 20 21  1  0
 20 58  1  0
 21 22  2  0
 21 39  1  0
 22 23  1  0
 22 74  1  0
 23 24  2  0
 23 75  1  0
 24 25  1  0
 24 38  1  0
 25 26  1  0
 25 37  1  0
 26 27  2  0
 26 31  1  0
 27 28  1  0
 27 76  1  0
 28 29  2  0
 28 77  1  0
 29 30  1  0
 29 78  1  0
 30 31  2  0
 30 79  1  0
 31 32  1  0
 32 33  1  0
 32 37  2  0
 33 34  2  0
 33 80  1  0
 34 35  1  0
 34 81  1  0
 35 36  2  0
 35 82  1  0
 36 37  1  0
 36 83  1  0
 38 39  2  0
 38 84  1  0
 39 40  1  0
 40 41  1  0
 40 58  2  0
 41 42  2  0
 41 85  1  0
 42 43  1  0
 42 56  1  0
 43 44  1  0
 43 55  1  0
 44 45  2  0
 44 49  1  0
 45 46  1  0
 45 86  1  0
 46 47  2  0
 46 87  1  0
 47 48  1  0
 47 88  1  0
 48 49  2  0
 48 89  1  0
 49 50  1  0
 50 51  1  0
 50 55  2  0
 51 52  2  0
 51 90  1  0
 52 53  1  0
 52 91  1  0
 53 54  2  0
 53 92  1  0
 54 55  1  0
 54 93  1  0
 56 57  2  0
 56 94  1  0
 57 58  1  0
 57 95  1  0
 59 60  2  0
 59 96  1  0
 60 97  1  0
 62 63  2  0
 62 98  1  0
 63 99  1  0
M  END

