
     RDKit          3D

 44 46  0  0  0  0  0  0  0  0999 V2000
    1.0620    0.3226    0.3895 C   0  0  0  0  0  0  0  0  0  0  0  0
    2.5634    0.0523    0.2196 C   0  0  1  0  0  0  0  0  0  0  0  0
    2.8650   -1.3975   -0.2116 C   0  0  0  0  0  0  0  0  0  0  0  0
    2.5243   -1.6473   -1.6857 C   0  0  2  0  0  0  0  0  0  0  0  0
    2.8969   -3.0597   -2.1339 C   0  0  0  0  0  0  0  0  0  0  0  0
    3.5663   -3.8224   -1.4933 O   0  0  0  0  0  0  0  0  0  0  0  0
    2.4374   -3.4106   -3.3578 O   0  0  0  0  0  0  0  0  0  0  0  0
    3.2352   -0.5938   -2.5645 C   0  0  0  0  0  0  0  0  0  0  0  0
    2.8757    0.7581   -2.1509 N   0  0  0  0  0  0  0  0  0  0  0  0
    1.9197    1.4080   -2.8986 C   0  0  0  0  0  0  0  0  0  0  0  0
    1.3187    0.8561   -3.8119 O   0  0  0  0  0  0  0  0  0  0  0  0
    1.6514    2.8667   -2.6222 C   0  0  0  0  0  0  0  0  0  0  0  0
    0.3426    3.3428   -2.7982 C   0  0  0  0  0  0  0  0  0  0  0  0
    0.0448    4.6905   -2.6214 C   0  0  0  0  0  0  0  0  0  0  0  0
    1.0511    5.6272   -2.3303 C   0  0  0  0  0  0  0  0  0  0  0  0
    0.6948    6.9767   -2.1326 N   0  0  0  0  0  0  0  0  0  0  0  0
    1.0594    7.8132   -1.0868 C   0  0  0  0  0  0  0  0  0  0  0  0
    0.4252    9.0050   -1.3314 C   0  0  0  0  0  0  0  0  0  0  0  0
   -0.3042    8.9366   -2.4962 N   0  0  0  0  0  0  0  0  0  0  0  0
   -0.1334    7.7252   -2.9507 C   0  0  0  0  0  0  0  0  0  0  0  0
    2.3708    5.1466   -2.2222 C   0  0  0  0  0  0  0  0  0  0  0  0
    3.5274    6.0515   -2.0487 N   0  0  0  0  0  0  0  0  0  0  0  0
    3.5009    7.1187   -2.6323 O   0  0  0  0  0  0  0  0  0  0  0  0
    4.4460    5.6418   -1.3557 O   0  0  0  0  0  0  0  0  0  0  0  0
    2.6637    3.7873   -2.3368 C   0  0  0  0  0  0  0  0  0  0  0  0
    3.2246    1.0521   -0.7568 C   0  0  0  0  0  0  0  0  0  0  0  0
    0.6190   -0.3786    1.1141 H   0  0  0  0  0  0  0  0  0  0  0  0
    0.5053    0.2126   -0.5552 H   0  0  0  0  0  0  0  0  0  0  0  0
    0.8813    1.3441    0.7613 H   0  0  0  0  0  0  0  0  0  0  0  0
    3.0446    0.2152    1.1997 H   0  0  0  0  0  0  0  0  0  0  0  0
    2.3226   -2.1099    0.4294 H   0  0  0  0  0  0  0  0  0  0  0  0
    3.9357   -1.6188   -0.0692 H   0  0  0  0  0  0  0  0  0  0  0  0
    1.4385   -1.5280   -1.8524 H   0  0  0  0  0  0  0  0  0  0  0  0
    1.8837   -2.7104   -3.7343 H   0  0  0  0  0  0  0  0  0  0  0  0
    2.9765   -0.7033   -3.6239 H   0  0  0  0  0  0  0  0  0  0  0  0
    4.3277   -0.7124   -2.4568 H   0  0  0  0  0  0  0  0  0  0  0  0
   -0.4447    2.6338   -3.0604 H   0  0  0  0  0  0  0  0  0  0  0  0
   -0.9872    5.0392   -2.6871 H   0  0  0  0  0  0  0  0  0  0  0  0
    1.7021    7.4803   -0.2761 H   0  0  0  0  0  0  0  0  0  0  0  0
    0.4544    9.9091   -0.7244 H   0  0  0  0  0  0  0  0  0  0  0  0
   -0.5405    7.3144   -3.8749 H   0  0  0  0  0  0  0  0  0  0  0  0
    3.7038    3.4782   -2.2352 H   0  0  0  0  0  0  0  0  0  0  0  0
    2.9246    2.0752   -0.5028 H   0  0  0  0  0  0  0  0  0  0  0  0
    4.3229    0.9962   -0.6575 H   0  0  0  0  0  0  0  0  0  0  0  0
  1  2  1  0
  1 27  1  0
  1 28  1  0
  1 29  1  0
  2  3  1  0
  2 26  1  0
  2 30  1  1
  3  4  1  0
  3 31  1  0
  3 32  1  0
  4  5  1  0
  4  8  1  0
  4 33  1  1
  5  6  2  0
  5  7  1  0
  7 34  1  0
  8  9  1  0
  8 35  1  0
  8 36  1  0
  9 10  1  0
  9 26  1  0
 10 11  2  0
 10 12  1  0
 12 13  2  0
 12 25  1  0
 13 14  1  0
 13 37  1  0
 14 15  2  0
 14 38  1  0
 15 16  1  0
 15 21  1  0
 16 17  1  0
 16 20  1  0
 17 18  2  0
 17 39  1  0
 18 19  1  0
 18 40  1  0
 19 20  2  0
 20 41  1  0
 21 22  1  0
 21 25  2  0
 22 23  2  0
 22 24  1  0
 25 42  1  0
 26 43  1  0
 26 44  1  0
M  CHG  2  22   1  24  -1
M  END

