
     RDKit          3D

 34 36  0  0  0  0  0  0  0  0999 V2000
    1.0179    0.2905   -0.4626 C   0  0  0  0  0  0  0  0  0  0  0  0
    2.4989    0.0942   -0.3590 C   0  0  0  0  0  0  0  0  0  0  0  0
    3.5004    1.5224   -0.5849 S   0  0  0  0  0  0  0  0  0  0  0  0
    5.0248    0.7974   -0.2380 C   0  0  0  0  0  0  0  0  0  0  0  0
    6.1797    1.4850   -0.2508 N   0  0  0  0  0  0  0  0  0  0  0  0
    7.4475    0.8625    0.1571 C   0  0  0  0  0  0  0  0  0  0  0  0
    8.6121    1.4578   -0.6339 C   0  0  0  0  0  0  0  0  0  0  0  0
    8.6184    2.8647   -0.5566 O   0  0  0  0  0  0  0  0  0  0  0  0
    7.4471    3.4111   -1.1155 C   0  0  0  0  0  0  0  0  0  0  0  0
    6.2023    2.9510   -0.3569 C   0  0  0  0  0  0  0  0  0  0  0  0
    4.9331   -0.8875    0.1071 S   0  0  0  0  0  0  0  0  0  0  0  0
    3.1565   -1.0691   -0.0560 C   0  0  0  0  0  0  0  0  0  0  0  0
    2.6336   -2.4093    0.1217 C   0  0  0  0  0  0  0  0  0  0  0  0
    3.1390   -3.2296    1.1594 C   0  0  0  0  0  0  0  0  0  0  0  0
    2.6886   -4.5260    1.3206 C   0  0  0  0  0  0  0  0  0  0  0  0
    3.4341   -5.7325    2.9109 I   0  0  0  0  0  0  0  0  0  0  0  0
    1.7117   -5.0558    0.4433 C   0  0  0  0  0  0  0  0  0  0  0  0
    1.2199   -4.2766   -0.5804 C   0  0  0  0  0  0  0  0  0  0  0  0
   -0.2364   -5.0720   -1.9084 I   0  0  0  0  0  0  0  0  0  0  0  0
    1.6503   -2.9056   -0.8532 C   0  0  0  0  0  0  0  0  0  0  0  0
    1.2431   -2.2369   -1.8202 O   0  0  0  0  0  0  0  0  0  0  0  0
    0.7518    1.3410   -0.6512 H   0  0  0  0  0  0  0  0  0  0  0  0
    0.5329   -0.0312    0.4740 H   0  0  0  0  0  0  0  0  0  0  0  0
    0.6400   -0.3659   -1.2672 H   0  0  0  0  0  0  0  0  0  0  0  0
    7.3957   -0.2211   -0.0201 H   0  0  0  0  0  0  0  0  0  0  0  0
    7.5989    1.0271    1.2398 H   0  0  0  0  0  0  0  0  0  0  0  0
    8.5515    1.1270   -1.6903 H   0  0  0  0  0  0  0  0  0  0  0  0
    9.5624    1.0978   -0.2136 H   0  0  0  0  0  0  0  0  0  0  0  0
    7.3566    3.1276   -2.1837 H   0  0  0  0  0  0  0  0  0  0  0  0
    7.5294    4.5061   -1.0551 H   0  0  0  0  0  0  0  0  0  0  0  0
    5.3021    3.2942   -0.8863 H   0  0  0  0  0  0  0  0  0  0  0  0
    6.1927    3.3867    0.6593 H   0  0  0  0  0  0  0  0  0  0  0  0
    3.8708   -2.8197    1.8608 H   0  0  0  0  0  0  0  0  0  0  0  0
    1.3510   -6.0765    0.5783 H   0  0  0  0  0  0  0  0  0  0  0  0
  1  2  1  0
  1 22  1  0
  1 23  1  0
  1 24  1  0
  2  3  1  0
  2 12  2  0
  3  4  2  0
  4  5  1  0
  4 11  1  0
  5  6  1  0
  5 10  1  0
  6  7  1  0
  6 25  1  0
  6 26  1  0
  7  8  1  0
  7 27  1  0
  7 28  1  0
  8  9  1  0
  9 10  1  0
  9 29  1  0
  9 30  1  0
 10 31  1  0
 10 32  1  0
 11 12  1  0
 12 13  1  0
 13 14  2  0
 13 20  1  0
 14 15  1  0
 14 33  1  0
 15 16  1  0
 15 17  2  0
 17 18  1  0
 17 34  1  0
 18 19  1  0
 18 20  2  0
 20 21  1  0
M  CHG  2   3   1  21  -1
M  END

