
     RDKit          3D

 52 56  0  0  0  0  0  0  0  0999 V2000
    2.5735    2.0435   -1.0548 O   0  0  0  0  0  0  0  0  0  0  0  0
    3.1429    1.1059   -0.5058 C   0  0  0  0  0  0  0  0  0  0  0  0
    3.1035    0.9105    0.8543 N   0  0  0  0  0  0  0  0  0  0  0  0
    2.3282    1.8047    1.7251 C   0  0  1  0  0  0  0  0  0  0  0  0
    1.5629    0.9847    2.7545 C   0  0  0  0  0  0  0  0  0  0  0  0
    0.1730    0.8203    2.6454 C   0  0  0  0  0  0  0  0  0  0  0  0
   -0.5311    0.0405    3.5639 C   0  0  0  0  0  0  0  0  0  0  0  0
    0.1377   -0.5935    4.6137 C   0  0  0  0  0  0  0  0  0  0  0  0
    1.5311   -0.4226    4.7461 C   0  0  0  0  0  0  0  0  0  0  0  0
    2.2268    0.3575    3.8189 C   0  0  0  0  0  0  0  0  0  0  0  0
    2.2276   -1.0027    5.7698 O   0  0  0  0  0  0  0  0  0  0  0  0
    1.4207   -1.4721    6.8392 C   0  0  0  0  0  0  0  0  0  0  0  0
    0.2133   -2.2198    6.2988 C   0  0  0  0  0  0  0  0  0  0  0  0
   -0.5764   -1.3608    5.4912 O   0  0  0  0  0  0  0  0  0  0  0  0
    3.1966    2.8942    2.3413 C   0  0  1  0  0  0  0  0  0  0  0  0
    3.5747    4.0962    1.5142 C   0  0  0  0  0  0  0  0  0  0  0  0
    2.5924    4.2397    2.6504 C   0  0  0  0  0  0  0  0  0  0  0  0
    3.8841    0.1780   -1.2269 N   0  0  0  0  0  0  0  0  0  0  0  0
    3.8416    0.2048   -2.6745 C   0  0  0  0  0  0  0  0  0  0  0  0
    5.2555    0.2573   -3.2284 C   0  0  0  0  0  0  0  0  0  0  0  0
    6.0927   -0.8042   -2.6607 N   0  0  0  0  0  0  0  0  0  0  0  0
    7.2149   -1.2576   -3.4430 C   0  0  1  0  0  0  0  0  0  0  0  0
    8.2531   -0.2521   -3.8870 C   0  0  0  0  0  0  0  0  0  0  0  0
    8.5894   -1.2844   -2.8442 C   0  0  0  0  0  0  0  0  0  0  0  0
    5.7864   -1.4603   -1.4951 C   0  0  0  0  0  0  0  0  0  0  0  0
    6.4018   -2.4279   -1.0844 O   0  0  0  0  0  0  0  0  0  0  0  0
    4.6242   -0.9209   -0.6468 C   0  0  0  0  0  0  0  0  0  0  0  0
    3.3892    0.0235    1.2467 H   0  0  0  0  0  0  0  0  0  0  0  0
    1.5997    2.2985    1.0657 H   0  0  0  0  0  0  0  0  0  0  0  0
   -0.3654    1.3028    1.8261 H   0  0  0  0  0  0  0  0  0  0  0  0
   -1.6111   -0.0998    3.4825 H   0  0  0  0  0  0  0  0  0  0  0  0
    3.3029    0.4698    3.9721 H   0  0  0  0  0  0  0  0  0  0  0  0
    1.0861   -0.6213    7.4624 H   0  0  0  0  0  0  0  0  0  0  0  0
    2.0528   -2.1299    7.4536 H   0  0  0  0  0  0  0  0  0  0  0  0
   -0.4315   -2.5755    7.1158 H   0  0  0  0  0  0  0  0  0  0  0  0
    0.5480   -3.0935    5.7080 H   0  0  0  0  0  0  0  0  0  0  0  0
    3.9567    2.5288    3.0414 H   0  0  0  0  0  0  0  0  0  0  0  0
    3.1935    4.1340    0.4903 H   0  0  0  0  0  0  0  0  0  0  0  0
    4.5779    4.5129    1.6423 H   0  0  0  0  0  0  0  0  0  0  0  0
    1.5380    4.3932    2.4003 H   0  0  0  0  0  0  0  0  0  0  0  0
    2.9118    4.7548    3.5606 H   0  0  0  0  0  0  0  0  0  0  0  0
    3.2733    1.0925   -2.9776 H   0  0  0  0  0  0  0  0  0  0  0  0
    3.3191   -0.6926   -3.0624 H   0  0  0  0  0  0  0  0  0  0  0  0
    5.6971    1.2499   -3.0258 H   0  0  0  0  0  0  0  0  0  0  0  0
    5.2316    0.1279   -4.3230 H   0  0  0  0  0  0  0  0  0  0  0  0
    6.9717   -2.0613   -4.1512 H   0  0  0  0  0  0  0  0  0  0  0  0
    8.1345    0.7833   -3.5560 H   0  0  0  0  0  0  0  0  0  0  0  0
    8.6637   -0.3573   -4.8951 H   0  0  0  0  0  0  0  0  0  0  0  0
    8.6880   -0.9563   -1.8076 H   0  0  0  0  0  0  0  0  0  0  0  0
    9.2373   -2.1227   -3.1125 H   0  0  0  0  0  0  0  0  0  0  0  0
    5.0944   -0.6099    0.3000 H   0  0  0  0  0  0  0  0  0  0  0  0
    3.9917   -1.8019   -0.4172 H   0  0  0  0  0  0  0  0  0  0  0  0
  1  2  2  0
  2  3  1  0
  2 18  1  0
  3  4  1  0
  3 28  1  0
  4  5  1  0
  4 15  1  0
  4 29  1  6
  5  6  2  0
  5 10  1  0
  6  7  1  0
  6 30  1  0
  7  8  2  0
  7 31  1  0
  8  9  1  0
  8 14  1  0
  9 10  2  0
  9 11  1  0
 10 32  1  0
 11 12  1  0
 12 13  1  0
 12 33  1  0
 12 34  1  0
 13 14  1  0
 13 35  1  0
 13 36  1  0
 15 16  1  0
 15 17  1  0
 15 37  1  1
 16 17  1  0
 16 38  1  0
 16 39  1  0
 17 40  1  0
 17 41  1  0
 18 19  1  0
 18 27  1  0
 19 20  1  0
 19 42  1  0
 19 43  1  0
 20 21  1  0
 20 44  1  0
 20 45  1  0
 21 22  1  0
 21 25  1  0
 22 23  1  0
 22 24  1  0
 22 46  1  6
 23 24  1  0
 23 47  1  0
 23 48  1  0
 24 49  1  0
 24 50  1  0
 25 26  2  0
 25 27  1  0
 27 51  1  0
 27 52  1  0
M  END

