
     RDKit          3D

 41 43  0  0  0  0  0  0  0  0999 V2000
    3.2824   -0.3439    3.1336 N   0  0  0  0  0  0  0  0  0  0  0  0
    3.5322   -0.2096    1.6944 C   0  0  1  0  0  0  0  0  0  0  0  0
    2.9129    0.6320    1.3512 H   0  0  0  0  0  0  0  0  0  0  0  0
    5.0310    0.0355    1.3160 C   0  0  0  0  0  0  0  0  0  0  0  0
    5.5170   -1.2303    0.5701 C   0  0  0  0  0  0  0  0  0  0  0  0
    4.4679   -2.3024    0.8941 C   0  0  0  0  0  0  0  0  0  0  0  0
    3.1453   -1.5071    0.9193 C   0  0  1  0  0  0  0  0  0  0  0  0
    2.9522   -1.2021   -0.1261 H   0  0  0  0  0  0  0  0  0  0  0  0
    1.9418   -2.3099    1.4234 C   0  0  2  0  0  0  0  0  0  0  0  0
    1.5460   -3.5083    0.5101 C   0  0  0  0  0  0  0  0  0  0  0  0
    0.2114   -2.8185    0.1579 C   0  0  0  0  0  0  0  0  0  0  0  0
    0.4727   -1.7322    1.2471 C   0  0  2  0  0  0  0  0  0  0  0  0
    0.3298   -0.2903    0.7116 C   0  0  0  0  0  0  0  0  0  0  0  0
   -0.9817   -0.0158    0.2694 O   0  0  0  0  0  0  0  0  0  0  0  0
   -0.3950   -1.8484    2.4988 C   0  0  0  0  0  0  0  0  0  0  0  0
    0.0973   -1.4310    3.7502 C   0  0  0  0  0  0  0  0  0  0  0  0
   -0.7057   -1.4606    4.8917 C   0  0  0  0  0  0  0  0  0  0  0  0
   -2.0298   -1.8982    4.7941 C   0  0  0  0  0  0  0  0  0  0  0  0
   -3.0394   -1.9441    6.2252 Cl  0  0  0  0  0  0  0  0  0  0  0  0
   -2.5546   -2.2918    3.5628 C   0  0  0  0  0  0  0  0  0  0  0  0
   -1.7366   -2.2614    2.4279 C   0  0  0  0  0  0  0  0  0  0  0  0
    3.5125    0.5275    3.6119 H   0  0  0  0  0  0  0  0  0  0  0  0
    3.8933   -1.0544    3.5402 H   0  0  0  0  0  0  0  0  0  0  0  0
    5.6082    0.1975    2.2411 H   0  0  0  0  0  0  0  0  0  0  0  0
    5.1572    0.9436    0.7054 H   0  0  0  0  0  0  0  0  0  0  0  0
    6.5405   -1.5256    0.8487 H   0  0  0  0  0  0  0  0  0  0  0  0
    5.5233   -1.0505   -0.5179 H   0  0  0  0  0  0  0  0  0  0  0  0
    4.6576   -2.7523    1.8861 H   0  0  0  0  0  0  0  0  0  0  0  0
    4.4622   -3.1298    0.1684 H   0  0  0  0  0  0  0  0  0  0  0  0
    2.1341   -2.6140    2.4618 H   0  0  0  0  0  0  0  0  0  0  0  0
    1.4188   -4.4485    1.0675 H   0  0  0  0  0  0  0  0  0  0  0  0
    2.2182   -3.7060   -0.3386 H   0  0  0  0  0  0  0  0  0  0  0  0
   -0.6915   -3.4325    0.2761 H   0  0  0  0  0  0  0  0  0  0  0  0
    0.1907   -2.3885   -0.8545 H   0  0  0  0  0  0  0  0  0  0  0  0
    0.6580    0.4261    1.4886 H   0  0  0  0  0  0  0  0  0  0  0  0
    0.9778   -0.1498   -0.1677 H   0  0  0  0  0  0  0  0  0  0  0  0
   -1.5669   -0.0471    1.0392 H   0  0  0  0  0  0  0  0  0  0  0  0
    1.1236   -1.0557    3.8162 H   0  0  0  0  0  0  0  0  0  0  0  0
   -0.3114   -1.1417    5.8584 H   0  0  0  0  0  0  0  0  0  0  0  0
   -3.5926   -2.6220    3.4940 H   0  0  0  0  0  0  0  0  0  0  0  0
   -2.1627   -2.5703    1.4712 H   0  0  0  0  0  0  0  0  0  0  0  0
  1  2  1  0
  1 22  1  0
  1 23  1  0
  2  3  1  6
  2  4  1  0
  2  7  1  0
  4  5  1  0
  4 24  1  0
  4 25  1  0
  5  6  1  0
  5 26  1  0
  5 27  1  0
  6  7  1  0
  6 28  1  0
  6 29  1  0
  7  8  1  6
  7  9  1  0
  9 10  1  0
  9 12  1  0
  9 30  1  1
 10 11  1  0
 10 31  1  0
 10 32  1  0
 11 12  1  0
 11 33  1  0
 11 34  1  0
 12 13  1  6
 12 15  1  0
 13 14  1  0
 13 35  1  0
 13 36  1  0
 14 37  1  0
 15 16  2  0
 15 21  1  0
 16 17  1  0
 16 38  1  0
 17 18  2  0
 17 39  1  0
 18 19  1  0
 18 20  1  0
 20 21  2  0
 20 40  1  0
 21 41  1  0
M  END

