
     RDKit          3D

 52 54  0  0  0  0  0  0  0  0999 V2000
    0.3980   -0.0766   -0.1460 C   0  0  0  0  0  0  0  0  0  0  0  0
    1.8844   -0.3058    0.1626 C   0  0  1  0  0  0  0  0  0  0  0  0
    2.3600   -1.7278   -0.2339 C   0  0  0  0  0  0  0  0  0  0  0  0
    2.5190   -1.8903   -1.7522 C   0  0  2  0  0  0  0  0  0  0  0  0
    3.0069   -3.2287   -2.0659 N   0  0  0  0  0  0  0  0  0  0  0  0
    2.7442   -3.7923   -3.3021 C   0  0  0  0  0  0  0  0  0  0  0  0
    2.0465   -3.2253   -4.1331 O   0  0  0  0  0  0  0  0  0  0  0  0
    3.2884   -5.0503   -3.5325 N   0  0  0  0  0  0  0  0  0  0  0  0
    4.0157   -5.8416   -2.5550 C   0  0  0  0  0  0  0  0  0  0  0  0
    3.5763   -7.3158   -2.5814 C   0  0  0  0  0  0  0  0  0  0  0  0
    3.5868   -7.9263   -3.9897 C   0  0  2  0  0  0  0  0  0  0  0  0
    4.9621   -8.1411   -4.4369 N   0  0  0  0  0  0  0  0  0  0  0  0
    5.3176   -9.0476   -5.3969 C   0  0  0  0  0  0  0  0  0  0  0  0
    6.6680   -9.1824   -5.8171 C   0  0  0  0  0  0  0  0  0  0  0  0
    6.9358  -10.1398   -6.7703 C   0  0  0  0  0  0  0  0  0  0  0  0
    5.8578  -10.9080   -7.2506 C   0  0  0  0  0  0  0  0  0  0  0  0
    4.6136  -10.7328   -6.8225 N   0  0  0  0  0  0  0  0  0  0  0  0
    4.3381   -9.8126   -5.9128 N   0  0  0  0  0  0  0  0  0  0  0  0
    2.7801   -7.0206   -4.9413 C   0  0  0  0  0  0  0  0  0  0  0  0
    3.2722   -5.5752   -4.8975 C   0  0  0  0  0  0  0  0  0  0  0  0
    3.4109   -0.7703   -2.3140 C   0  0  0  0  0  0  0  0  0  0  0  0
    2.8830    0.6071   -1.8734 C   0  0  0  0  0  0  0  0  0  0  0  0
    2.7214    0.7485   -0.4284 N   0  0  0  0  0  0  0  0  0  0  0  0
    3.9522    1.0171    0.2892 C   0  0  0  0  0  0  0  0  0  0  0  0
   -0.2267   -0.7992    0.4029 H   0  0  0  0  0  0  0  0  0  0  0  0
    0.1627   -0.1876   -1.2157 H   0  0  0  0  0  0  0  0  0  0  0  0
    0.1068    0.9402    0.1570 H   0  0  0  0  0  0  0  0  0  0  0  0
    1.9976   -0.2138    1.2558 H   0  0  0  0  0  0  0  0  0  0  0  0
    1.6626   -2.4890    0.1534 H   0  0  0  0  0  0  0  0  0  0  0  0
    3.3371   -1.9234    0.2467 H   0  0  0  0  0  0  0  0  0  0  0  0
    1.5359   -1.8142   -2.2405 H   0  0  0  0  0  0  0  0  0  0  0  0
    3.8416   -3.5187   -1.5710 H   0  0  0  0  0  0  0  0  0  0  0  0
    3.8241   -5.4508   -1.5472 H   0  0  0  0  0  0  0  0  0  0  0  0
    5.1134   -5.7638   -2.7223 H   0  0  0  0  0  0  0  0  0  0  0  0
    2.5461   -7.3740   -2.1954 H   0  0  0  0  0  0  0  0  0  0  0  0
    4.2154   -7.9049   -1.9028 H   0  0  0  0  0  0  0  0  0  0  0  0
    3.1115   -8.9172   -3.9663 H   0  0  0  0  0  0  0  0  0  0  0  0
    5.6831   -7.5118   -4.1105 H   0  0  0  0  0  0  0  0  0  0  0  0
    7.4535   -8.5505   -5.3934 H   0  0  0  0  0  0  0  0  0  0  0  0
    7.9498  -10.3027   -7.1440 H   0  0  0  0  0  0  0  0  0  0  0  0
    5.9994  -11.6871   -8.0053 H   0  0  0  0  0  0  0  0  0  0  0  0
    1.7188   -7.0534   -4.6415 H   0  0  0  0  0  0  0  0  0  0  0  0
    2.8415   -7.4188   -5.9652 H   0  0  0  0  0  0  0  0  0  0  0  0
    2.6286   -4.9150   -5.4904 H   0  0  0  0  0  0  0  0  0  0  0  0
    4.2941   -5.5185   -5.3264 H   0  0  0  0  0  0  0  0  0  0  0  0
    3.4349   -0.8385   -3.4132 H   0  0  0  0  0  0  0  0  0  0  0  0
    4.4461   -0.9159   -1.9526 H   0  0  0  0  0  0  0  0  0  0  0  0
    1.9075    0.7831   -2.3596 H   0  0  0  0  0  0  0  0  0  0  0  0
    3.5494    1.4085   -2.2310 H   0  0  0  0  0  0  0  0  0  0  0  0
    4.4499    1.8997   -0.1448 H   0  0  0  0  0  0  0  0  0  0  0  0
    4.6976    0.1892    0.2895 H   0  0  0  0  0  0  0  0  0  0  0  0
    3.7276    1.2520    1.3424 H   0  0  0  0  0  0  0  0  0  0  0  0
  1  2  1  0
  1 25  1  0
  1 26  1  0
  1 27  1  0
  2  3  1  0
  2 23  1  0
  2 28  1  1
  3  4  1  0
  3 29  1  0
  3 30  1  0
  4  5  1  0
  4 21  1  0
  4 31  1  6
  5  6  1  0
  5 32  1  0
  6  7  2  0
  6  8  1  0
  8  9  1  0
  8 20  1  0
  9 10  1  0
  9 33  1  0
  9 34  1  0
 10 11  1  0
 10 35  1  0
 10 36  1  0
 11 12  1  0
 11 19  1  0
 11 37  1  1
 12 13  1  0
 12 38  1  0
 13 14  2  0
 13 18  1  0
 14 15  1  0
 14 39  1  0
 15 16  2  0
 15 40  1  0
 16 17  1  0
 16 41  1  0
 17 18  2  0
 19 20  1  0
 19 42  1  0
 19 43  1  0
 20 44  1  0
 20 45  1  0
 21 22  1  0
 21 46  1  0
 21 47  1  0
 22 23  1  0
 22 48  1  0
 22 49  1  0
 23 24  1  0
 24 50  1  0
 24 51  1  0
 24 52  1  0
M  END

