
     RDKit          3D

 34 34  0  0  0  0  0  0  0  0999 V2000
    0.7617   -0.0229    0.0028 C   0  0  0  0  0  0  0  0  0  0  0  0
    2.2815   -0.0320   -0.1656 C   0  0  0  0  0  0  0  0  0  0  0  0
    2.8858    1.3729   -0.2391 C   0  0  0  0  0  0  0  0  0  0  0  0
    4.4047    1.3676   -0.4170 C   0  0  1  0  0  0  0  0  0  0  0  0
    4.8501    0.6268   -1.5491 O   0  0  0  0  0  0  0  0  0  0  0  0
    4.4739    1.1278   -2.8149 C   0  0  0  0  0  0  0  0  0  0  0  0
    5.0018    2.7983   -0.3932 C   0  0  0  0  0  0  0  0  0  0  0  0
    4.2706    3.7615   -0.2628 O   0  0  0  0  0  0  0  0  0  0  0  0
    6.4908    2.9728   -0.4812 C   0  0  0  0  0  0  0  0  0  0  0  0
    6.9977    4.2768   -0.3750 C   0  0  0  0  0  0  0  0  0  0  0  0
    8.3726    4.4984   -0.4133 C   0  0  0  0  0  0  0  0  0  0  0  0
    9.2528    3.4252   -0.5576 C   0  0  0  0  0  0  0  0  0  0  0  0
   10.9685    3.7076   -0.6036 Cl  0  0  0  0  0  0  0  0  0  0  0  0
    8.7658    2.1024   -0.6708 C   0  0  0  0  0  0  0  0  0  0  0  0
    9.6818    1.1215   -0.8159 O   0  0  0  0  0  0  0  0  0  0  0  0
    9.2499   -0.2181   -0.9285 C   0  0  0  0  0  0  0  0  0  0  0  0
    7.3818    1.8925   -0.6316 C   0  0  0  0  0  0  0  0  0  0  0  0
    0.3551   -1.0454    0.0559 H   0  0  0  0  0  0  0  0  0  0  0  0
    0.2679    0.4880   -0.8408 H   0  0  0  0  0  0  0  0  0  0  0  0
    0.4621    0.5034    0.9246 H   0  0  0  0  0  0  0  0  0  0  0  0
    2.5560   -0.5960   -1.0729 H   0  0  0  0  0  0  0  0  0  0  0  0
    2.7440   -0.5821    0.6743 H   0  0  0  0  0  0  0  0  0  0  0  0
    2.6592    1.9355    0.6811 H   0  0  0  0  0  0  0  0  0  0  0  0
    2.4166    1.9561   -1.0491 H   0  0  0  0  0  0  0  0  0  0  0  0
    4.8537    0.8315    0.4388 H   0  0  0  0  0  0  0  0  0  0  0  0
    4.9832    0.5085   -3.5673 H   0  0  0  0  0  0  0  0  0  0  0  0
    4.7826    2.1799   -2.9624 H   0  0  0  0  0  0  0  0  0  0  0  0
    3.3848    1.0591   -2.9891 H   0  0  0  0  0  0  0  0  0  0  0  0
    6.2966    5.1039   -0.2558 H   0  0  0  0  0  0  0  0  0  0  0  0
    8.7825    5.5063   -0.3289 H   0  0  0  0  0  0  0  0  0  0  0  0
   10.1575   -0.8271   -1.0323 H   0  0  0  0  0  0  0  0  0  0  0  0
    8.6102   -0.3701   -1.8157 H   0  0  0  0  0  0  0  0  0  0  0  0
    8.6966   -0.5468   -0.0308 H   0  0  0  0  0  0  0  0  0  0  0  0
    6.9828    0.8884   -0.7563 H   0  0  0  0  0  0  0  0  0  0  0  0
  1  2  1  0
  1 18  1  0
  1 19  1  0
  1 20  1  0
  2  3  1  0
  2 21  1  0
  2 22  1  0
  3  4  1  0
  3 23  1  0
  3 24  1  0
  4  5  1  0
  4  7  1  0
  4 25  1  1
  5  6  1  0
  6 26  1  0
  6 27  1  0
  6 28  1  0
  7  8  2  0
  7  9  1  0
  9 10  2  0
  9 17  1  0
 10 11  1  0
 10 29  1  0
 11 12  2  0
 11 30  1  0
 12 13  1  0
 12 14  1  0
 14 15  1  0
 14 17  2  0
 15 16  1  0
 16 31  1  0
 16 32  1  0
 16 33  1  0
 17 34  1  0
M  END

