
     RDKit          3D

 51 55  0  0  0  0  0  0  0  0999 V2000
    6.4858   -0.7666    6.1513 C   0  0  0  0  0  0  0  0  0  0  0  0
    5.1162   -1.1285    6.6914 C   0  0  0  0  0  0  0  0  0  0  0  0
    4.7637   -0.8572    7.8246 O   0  0  0  0  0  0  0  0  0  0  0  0
    4.1984   -1.8381    5.7840 C   0  0  0  0  0  0  0  0  0  0  0  0
    2.9162   -2.2996    5.9708 C   0  0  0  0  0  0  0  0  0  0  0  0
    2.5201   -2.9080    4.7458 C   0  0  0  0  0  0  0  0  0  0  0  0
    3.5904   -2.7811    3.8936 C   0  0  0  0  0  0  0  0  0  0  0  0
    3.8135   -3.1822    2.4644 C   0  0  0  0  0  0  0  0  0  0  0  0
    3.3291   -4.5148    2.1585 N   0  0  0  0  0  0  0  0  0  0  0  0
    4.0389   -5.6812    2.1974 C   0  0  0  0  0  0  0  0  0  0  0  0
    3.1232   -6.6908    1.9228 C   0  0  0  0  0  0  0  0  0  0  0  0
    3.3278   -8.0644    1.8225 N   0  0  0  0  0  0  0  0  0  0  0  0
    4.5270   -8.7004    1.9909 C   0  0  0  0  0  0  0  0  0  0  0  0
    5.5666   -8.1027    2.2505 O   0  0  0  0  0  0  0  0  0  0  0  0
    4.4082  -10.1747    1.8223 C   0  0  0  0  0  0  0  0  0  0  0  0
    3.1607  -10.7138    1.5274 N   0  0  0  0  0  0  0  0  0  0  0  0
    3.3408  -11.9931    1.4362 C   0  0  0  0  0  0  0  0  0  0  0  0
    2.3651  -13.0537    1.1428 C   0  0  1  0  0  0  0  0  0  0  0  0
    0.9384  -12.9130    1.6449 C   0  0  0  0  0  0  0  0  0  0  0  0
    1.2216  -12.7697    0.1841 C   0  0  0  0  0  0  0  0  0  0  0  0
    4.6254  -12.3557    1.6493 O   0  0  0  0  0  0  0  0  0  0  0  0
    5.3346  -11.2038    1.9004 C   0  0  0  0  0  0  0  0  0  0  0  0
    6.7631  -11.3882    2.1598 C   0  0  0  0  0  0  0  0  0  0  0  0
    7.6222  -10.3047    2.4346 C   0  0  0  0  0  0  0  0  0  0  0  0
    8.9780  -10.5297    2.6765 C   0  0  0  0  0  0  0  0  0  0  0  0
    9.5042  -11.8245    2.6504 C   0  0  0  0  0  0  0  0  0  0  0  0
    8.6588  -12.9053    2.3783 C   0  0  0  0  0  0  0  0  0  0  0  0
    7.3031  -12.6934    2.1354 C   0  0  0  0  0  0  0  0  0  0  0  0
    1.8867   -6.0150    1.7447 C   0  0  0  0  0  0  0  0  0  0  0  0
    2.0300   -4.7016    1.8949 N   0  0  0  0  0  0  0  0  0  0  0  0
    4.6077   -2.1373    4.5115 O   0  0  0  0  0  0  0  0  0  0  0  0
    7.0461   -0.2345    6.9304 H   0  0  0  0  0  0  0  0  0  0  0  0
    6.3964   -0.1341    5.2534 H   0  0  0  0  0  0  0  0  0  0  0  0
    7.0344   -1.6733    5.8485 H   0  0  0  0  0  0  0  0  0  0  0  0
    2.3456   -2.2002    6.8911 H   0  0  0  0  0  0  0  0  0  0  0  0
    1.5729   -3.3837    4.5032 H   0  0  0  0  0  0  0  0  0  0  0  0
    4.8895   -3.1342    2.2456 H   0  0  0  0  0  0  0  0  0  0  0  0
    3.2986   -2.4883    1.7806 H   0  0  0  0  0  0  0  0  0  0  0  0
    5.1028   -5.7289    2.4005 H   0  0  0  0  0  0  0  0  0  0  0  0
    2.5358   -8.6652    1.6104 H   0  0  0  0  0  0  0  0  0  0  0  0
    2.8043  -14.0537    1.1299 H   0  0  0  0  0  0  0  0  0  0  0  0
    0.7109  -12.0077    2.2137 H   0  0  0  0  0  0  0  0  0  0  0  0
    0.4442  -13.8205    2.0020 H   0  0  0  0  0  0  0  0  0  0  0  0
    1.1881  -11.7663   -0.2482 H   0  0  0  0  0  0  0  0  0  0  0  0
    0.9280  -13.5759   -0.4937 H   0  0  0  0  0  0  0  0  0  0  0  0
    7.2107   -9.2954    2.4548 H   0  0  0  0  0  0  0  0  0  0  0  0
    9.6303   -9.6786    2.8883 H   0  0  0  0  0  0  0  0  0  0  0  0
   10.5673  -11.9923    2.8411 H   0  0  0  0  0  0  0  0  0  0  0  0
    9.0580  -13.9225    2.3552 H   0  0  0  0  0  0  0  0  0  0  0  0
    6.6519  -13.5420    1.9245 H   0  0  0  0  0  0  0  0  0  0  0  0
    0.9121   -6.4413    1.5059 H   0  0  0  0  0  0  0  0  0  0  0  0
  1  2  1  0
  1 32  1  0
  1 33  1  0
  1 34  1  0
  2  3  2  0
  2  4  1  0
  4  5  2  0
  4 31  1  0
  5  6  1  0
  5 35  1  0
  6  7  2  0
  6 36  1  0
  7  8  1  0
  7 31  1  0
  8  9  1  0
  8 37  1  0
  8 38  1  0
  9 10  1  0
  9 30  1  0
 10 11  2  0
 10 39  1  0
 11 12  1  0
 11 29  1  0
 12 13  1  0
 12 40  1  0
 13 14  2  0
 13 15  1  0
 15 16  1  0
 15 22  2  0
 16 17  2  0
 17 18  1  0
 17 21  1  0
 18 19  1  0
 18 20  1  0
 18 41  1  6
 19 20  1  0
 19 42  1  0
 19 43  1  0
 20 44  1  0
 20 45  1  0
 21 22  1  0
 22 23  1  0
 23 24  2  0
 23 28  1  0
 24 25  1  0
 24 46  1  0
 25 26  2  0
 25 47  1  0
 26 27  1  0
 26 48  1  0
 27 28  2  0
 27 49  1  0
 28 50  1  0
 29 30  2  0
 29 51  1  0
M  END

