
     RDKit          3D

 36 37  0  0  0  0  0  0  0  0999 V2000
    4.6081    2.3384    1.4140 C   0  0  0  0  0  0  0  0  0  0  0  0
    4.1781    1.1666    0.5634 C   0  0  0  0  0  0  0  0  0  0  0  0
    3.0850    1.2572   -0.3051 C   0  0  0  0  0  0  0  0  0  0  0  0
    2.7103    0.1585   -1.0878 C   0  0  0  0  0  0  0  0  0  0  0  0
    3.4182   -1.0383   -1.0083 C   0  0  0  0  0  0  0  0  0  0  0  0
    4.5208   -1.1605   -0.1438 C   0  0  0  0  0  0  0  0  0  0  0  0
    5.3089   -2.4772   -0.1316 C   0  0  1  0  0  0  0  0  0  0  0  0
    6.4276   -2.5414    0.9213 C   0  0  0  0  0  0  0  0  0  0  0  0
    4.4219   -3.6540   -0.1534 N   0  0  0  0  0  0  0  0  0  0  0  0
    3.8926   -4.1852    1.1064 C   0  0  1  0  0  0  0  0  0  0  0  0
    2.9167   -3.2134    1.7922 C   0  0  0  0  0  0  0  0  0  0  0  0
    3.2160   -5.5065    0.8046 C   0  0  0  0  0  0  0  0  0  0  0  0
    2.4973   -5.8715   -0.3081 C   0  0  0  0  0  0  0  0  0  0  0  0
    1.9481   -7.1893   -0.2325 C   0  0  0  0  0  0  0  0  0  0  0  0
    2.2591   -7.8084    0.9498 C   0  0  0  0  0  0  0  0  0  0  0  0
    1.8048   -9.3978    1.4518 Cl  0  0  0  0  0  0  0  0  0  0  0  0
    3.2335   -6.7971    1.9809 S   0  0  0  0  0  0  0  0  0  0  0  0
    4.8831   -0.0502    0.6279 C   0  0  0  0  0  0  0  0  0  0  0  0
    3.9233    3.1921    1.3030 H   0  0  0  0  0  0  0  0  0  0  0  0
    5.6196    2.6833    1.1396 H   0  0  0  0  0  0  0  0  0  0  0  0
    4.6409    2.0697    2.4831 H   0  0  0  0  0  0  0  0  0  0  0  0
    2.5215    2.1922   -0.3716 H   0  0  0  0  0  0  0  0  0  0  0  0
    1.8546    0.2408   -1.7637 H   0  0  0  0  0  0  0  0  0  0  0  0
    3.1195   -1.9022   -1.6050 H   0  0  0  0  0  0  0  0  0  0  0  0
    5.8118   -2.5145   -1.1153 H   0  0  0  0  0  0  0  0  0  0  0  0
    6.0514   -2.4191    1.9490 H   0  0  0  0  0  0  0  0  0  0  0  0
    7.1820   -1.7594    0.7482 H   0  0  0  0  0  0  0  0  0  0  0  0
    6.9421   -3.5137    0.8622 H   0  0  0  0  0  0  0  0  0  0  0  0
    4.8936   -4.4108   -0.6434 H   0  0  0  0  0  0  0  0  0  0  0  0
    4.7021   -4.3977    1.8387 H   0  0  0  0  0  0  0  0  0  0  0  0
    2.0845   -2.9644    1.1179 H   0  0  0  0  0  0  0  0  0  0  0  0
    3.4148   -2.2766    2.0805 H   0  0  0  0  0  0  0  0  0  0  0  0
    2.5069   -3.6782    2.7019 H   0  0  0  0  0  0  0  0  0  0  0  0
    2.3670   -5.2052   -1.1612 H   0  0  0  0  0  0  0  0  0  0  0  0
    1.3510   -7.6612   -1.0130 H   0  0  0  0  0  0  0  0  0  0  0  0
    5.7349   -0.1127    1.3088 H   0  0  0  0  0  0  0  0  0  0  0  0
  1  2  1  0
  1 19  1  0
  1 20  1  0
  1 21  1  0
  2  3  2  0
  2 18  1  0
  3  4  1  0
  3 22  1  0
  4  5  2  0
  4 23  1  0
  5  6  1  0
  5 24  1  0
  6  7  1  0
  6 18  2  0
  7  8  1  0
  7  9  1  0
  7 25  1  6
  8 26  1  0
  8 27  1  0
  8 28  1  0
  9 10  1  0
  9 29  1  0
 10 11  1  0
 10 12  1  0
 10 30  1  1
 11 31  1  0
 11 32  1  0
 11 33  1  0
 12 13  2  0
 12 17  1  0
 13 14  1  0
 13 34  1  0
 14 15  2  0
 14 35  1  0
 15 16  1  0
 15 17  1  0
 18 36  1  0
M  END

