
     RDKit          3D

 39 40  0  0  0  0  0  0  0  0999 V2000
    4.8505   -1.5305    2.4154 C   0  0  0  0  0  0  0  0  0  0  0  0
    3.6626   -1.8696    1.7328 O   0  0  0  0  0  0  0  0  0  0  0  0
    3.7140   -2.1935    0.4122 C   0  0  0  0  0  0  0  0  0  0  0  0
    4.8958   -2.1673   -0.3409 C   0  0  0  0  0  0  0  0  0  0  0  0
    4.8490   -2.5142   -1.6955 C   0  0  0  0  0  0  0  0  0  0  0  0
    6.4652   -2.4726   -2.7121 Br  0  0  0  0  0  0  0  0  0  0  0  0
    3.6567   -2.8877   -2.3087 C   0  0  0  0  0  0  0  0  0  0  0  0
    2.4902   -2.9101   -1.5341 C   0  0  0  0  0  0  0  0  0  0  0  0
    2.4844   -2.5716   -0.1790 C   0  0  0  0  0  0  0  0  0  0  0  0
    1.2149   -2.5866    0.6394 C   0  0  0  0  0  0  0  0  0  0  0  0
    0.6015   -1.1919    0.8547 C   0  0  0  0  0  0  0  0  0  0  0  0
   -0.6739   -1.2440    1.7031 C   0  0  0  0  0  0  0  0  0  0  0  0
   -1.2678    0.0621    1.9291 N   0  0  0  0  0  0  0  0  0  0  0  0
   -2.4256    0.4594    1.3275 C   0  0  0  0  0  0  0  0  0  0  0  0
   -3.0995   -0.2421    0.5892 O   0  0  0  0  0  0  0  0  0  0  0  0
   -2.8607    1.8483    1.6327 C   0  0  0  0  0  0  0  0  0  0  0  0
   -3.9685    2.5318    1.1977 C   0  0  0  0  0  0  0  0  0  0  0  0
   -3.9041    3.8257    1.7885 C   0  0  0  0  0  0  0  0  0  0  0  0
   -2.7607    3.8485    2.5464 C   0  0  0  0  0  0  0  0  0  0  0  0
   -2.1722    4.9154    3.3853 C   0  0  0  0  0  0  0  0  0  0  0  0
   -2.6824    5.9969    3.5071 O   0  0  0  0  0  0  0  0  0  0  0  0
   -1.0192    4.5936    4.0087 O   0  0  0  0  0  0  0  0  0  0  0  0
   -2.1173    2.6438    2.4566 O   0  0  0  0  0  0  0  0  0  0  0  0
    4.5667   -1.3345    3.4581 H   0  0  0  0  0  0  0  0  0  0  0  0
    5.3205   -0.6231    1.9960 H   0  0  0  0  0  0  0  0  0  0  0  0
    5.5849   -2.3550    2.3931 H   0  0  0  0  0  0  0  0  0  0  0  0
    5.8461   -1.8817    0.1060 H   0  0  0  0  0  0  0  0  0  0  0  0
    3.6332   -3.1591   -3.3645 H   0  0  0  0  0  0  0  0  0  0  0  0
    1.5492   -3.2088   -2.0050 H   0  0  0  0  0  0  0  0  0  0  0  0
    1.4235   -3.0390    1.6234 H   0  0  0  0  0  0  0  0  0  0  0  0
    0.4745   -3.2334    0.1403 H   0  0  0  0  0  0  0  0  0  0  0  0
    0.3672   -0.7323   -0.1200 H   0  0  0  0  0  0  0  0  0  0  0  0
    1.3469   -0.5422    1.3442 H   0  0  0  0  0  0  0  0  0  0  0  0
   -0.4582   -1.7182    2.6773 H   0  0  0  0  0  0  0  0  0  0  0  0
   -1.4424   -1.8520    1.2043 H   0  0  0  0  0  0  0  0  0  0  0  0
   -0.7634    0.7356    2.4928 H   0  0  0  0  0  0  0  0  0  0  0  0
   -4.7256    2.1276    0.5307 H   0  0  0  0  0  0  0  0  0  0  0  0
   -4.6015    4.6532    1.6832 H   0  0  0  0  0  0  0  0  0  0  0  0
   -0.7673    3.6832    3.7917 H   0  0  0  0  0  0  0  0  0  0  0  0
  1  2  1  0
  1 24  1  0
  1 25  1  0
  1 26  1  0
  2  3  1  0
  3  4  2  0
  3  9  1  0
  4  5  1  0
  4 27  1  0
  5  6  1  0
  5  7  2  0
  7  8  1  0
  7 28  1  0
  8  9  2  0
  8 29  1  0
  9 10  1  0
 10 11  1  0
 10 30  1  0
 10 31  1  0
 11 12  1  0
 11 32  1  0
 11 33  1  0
 12 13  1  0
 12 34  1  0
 12 35  1  0
 13 14  1  0
 13 36  1  0
 14 15  2  0
 14 16  1  0
 16 17  2  0
 16 23  1  0
 17 18  1  0
 17 37  1  0
 18 19  2  0
 18 38  1  0
 19 20  1  0
 19 23  1  0
 20 21  2  0
 20 22  1  0
 22 39  1  0
M  END

