
     RDKit          3D

 33 34  0  0  0  0  0  0  0  0999 V2000
    1.8081    4.4257   -0.0654 C   0  0  0  0  0  0  0  0  0  0  0  0
    3.2336    4.0703   -0.4518 C   0  0  0  0  0  0  0  0  0  0  0  0
    3.8525    3.2156    0.5320 O   0  0  0  0  0  0  0  0  0  0  0  0
    4.4423    3.8065    1.5720 C   0  0  0  0  0  0  0  0  0  0  0  0
    4.5150    4.9943    1.7683 O   0  0  0  0  0  0  0  0  0  0  0  0
    5.0263    2.7961    2.4933 C   0  0  0  0  0  0  0  0  0  0  0  0
    5.0296    1.5024    2.4257 N   0  0  0  0  0  0  0  0  0  0  0  0
    5.7049    1.0468    3.5346 N   0  0  0  0  0  0  0  0  0  0  0  0
    6.0670    2.1099    4.2041 C   0  0  0  0  0  0  0  0  0  0  0  0
    6.9252    2.2386    5.7137 S   0  0  0  0  0  0  0  0  0  0  0  0
    7.2541    0.4213    6.0464 C   0  0  1  0  0  0  0  0  0  0  0  0
    8.3647   -0.1261    5.1513 C   0  0  0  0  0  0  0  0  0  0  0  0
    7.5172    0.3036    7.5345 C   0  0  0  0  0  0  0  0  0  0  0  0
    6.5619   -0.2949    8.3706 C   0  0  0  0  0  0  0  0  0  0  0  0
    6.7903   -0.4197    9.7434 C   0  0  0  0  0  0  0  0  0  0  0  0
    7.9773    0.0611   10.3030 C   0  0  0  0  0  0  0  0  0  0  0  0
    8.9337    0.6655    9.4813 C   0  0  0  0  0  0  0  0  0  0  0  0
    8.7064    0.7841    8.1081 C   0  0  0  0  0  0  0  0  0  0  0  0
    5.6727    3.2525    3.6043 O   0  0  0  0  0  0  0  0  0  0  0  0
    1.3383    5.0072   -0.8747 H   0  0  0  0  0  0  0  0  0  0  0  0
    1.7890    5.0372    0.8489 H   0  0  0  0  0  0  0  0  0  0  0  0
    1.2079    3.5179    0.1005 H   0  0  0  0  0  0  0  0  0  0  0  0
    3.8487    4.9738   -0.5750 H   0  0  0  0  0  0  0  0  0  0  0  0
    3.2634    3.4831   -1.3804 H   0  0  0  0  0  0  0  0  0  0  0  0
    6.3075   -0.0789    5.8009 H   0  0  0  0  0  0  0  0  0  0  0  0
    9.3141    0.4096    5.2984 H   0  0  0  0  0  0  0  0  0  0  0  0
    8.0760   -0.0542    4.0936 H   0  0  0  0  0  0  0  0  0  0  0  0
    8.5297   -1.1898    5.3895 H   0  0  0  0  0  0  0  0  0  0  0  0
    5.6293   -0.6690    7.9390 H   0  0  0  0  0  0  0  0  0  0  0  0
    6.0369   -0.8936   10.3778 H   0  0  0  0  0  0  0  0  0  0  0  0
    8.1569   -0.0340   11.3769 H   0  0  0  0  0  0  0  0  0  0  0  0
    9.8634    1.0465    9.9115 H   0  0  0  0  0  0  0  0  0  0  0  0
    9.4632    1.2597    7.4789 H   0  0  0  0  0  0  0  0  0  0  0  0
  1  2  1  0
  1 20  1  0
  1 21  1  0
  1 22  1  0
  2  3  1  0
  2 23  1  0
  2 24  1  0
  3  4  1  0
  4  5  2  0
  4  6  1  0
  6  7  2  0
  6 19  1  0
  7  8  1  0
  8  9  2  0
  9 10  1  0
  9 19  1  0
 10 11  1  0
 11 12  1  0
 11 13  1  0
 11 25  1  1
 12 26  1  0
 12 27  1  0
 12 28  1  0
 13 14  2  0
 13 18  1  0
 14 15  1  0
 14 29  1  0
 15 16  2  0
 15 30  1  0
 16 17  1  0
 16 31  1  0
 17 18  2  0
 17 32  1  0
 18 33  1  0
M  END

