
     RDKit          3D

 39 39  0  0  0  0  0  0  0  0999 V2000
    0.7559   -0.2650    1.5245 C   0  0  0  0  0  0  0  0  0  0  0  0
    2.2578   -0.1738    1.8032 C   0  0  0  0  0  0  0  0  0  0  0  0
    3.0944   -0.9191    0.7576 C   0  0  0  0  0  0  0  0  0  0  0  0
    4.6173   -0.9286    0.9977 C   0  0  1  0  0  0  0  0  0  0  0  0
    5.3412   -1.6801   -0.1419 C   0  0  0  0  0  0  0  0  0  0  0  0
    5.1806    0.4324    1.1866 N   0  0  0  0  0  0  0  0  0  0  0  0
    5.2528    1.3694    0.1431 C   0  0  0  0  0  0  0  0  0  0  0  0
    5.0373    1.1072   -1.0229 O   0  0  0  0  0  0  0  0  0  0  0  0
    5.6217    2.6235    0.6082 N   0  0  0  0  0  0  0  0  0  0  0  0
    5.7619    3.8208   -0.1176 C   0  0  0  0  0  0  0  0  0  0  0  0
    5.4970    3.9010   -1.4929 C   0  0  0  0  0  0  0  0  0  0  0  0
    5.6427    5.1164   -2.1531 C   0  0  0  0  0  0  0  0  0  0  0  0
    5.3845    5.1661   -3.4611 F   0  0  0  0  0  0  0  0  0  0  0  0
    6.0519    6.2662   -1.4762 C   0  0  0  0  0  0  0  0  0  0  0  0
    6.2440    7.9081   -2.4068 Br  0  0  0  0  0  0  0  0  0  0  0  0
    6.3160    6.1774   -0.1076 C   0  0  0  0  0  0  0  0  0  0  0  0
    6.1800    4.9753    0.5936 C   0  0  0  0  0  0  0  0  0  0  0  0
    6.4719    4.9208    2.0742 C   0  0  0  0  0  0  0  0  0  0  0  0
    4.9611   -1.7225    2.2873 C   0  0  0  0  0  0  0  0  0  0  0  0
    4.2810   -2.6110    2.7209 O   0  0  0  0  0  0  0  0  0  0  0  0
    6.1327   -1.3833    2.8584 O   0  0  0  0  0  0  0  0  0  0  0  0
    0.1726    0.2860    2.2790 H   0  0  0  0  0  0  0  0  0  0  0  0
    0.4131   -1.3125    1.5375 H   0  0  0  0  0  0  0  0  0  0  0  0
    0.5051    0.1542    0.5360 H   0  0  0  0  0  0  0  0  0  0  0  0
    2.4669   -0.5870    2.8048 H   0  0  0  0  0  0  0  0  0  0  0  0
    2.5488    0.8926    1.8297 H   0  0  0  0  0  0  0  0  0  0  0  0
    2.9187   -0.4844   -0.2399 H   0  0  0  0  0  0  0  0  0  0  0  0
    2.7659   -1.9692    0.7178 H   0  0  0  0  0  0  0  0  0  0  0  0
    5.1189   -1.2195   -1.1105 H   0  0  0  0  0  0  0  0  0  0  0  0
    5.0049   -2.7269   -0.1463 H   0  0  0  0  0  0  0  0  0  0  0  0
    6.4318   -1.6693    0.0082 H   0  0  0  0  0  0  0  0  0  0  0  0
    4.8684    0.8522    2.0601 H   0  0  0  0  0  0  0  0  0  0  0  0
    5.9026    2.6779    1.5786 H   0  0  0  0  0  0  0  0  0  0  0  0
    5.1853    3.0228   -2.0526 H   0  0  0  0  0  0  0  0  0  0  0  0
    6.6365    7.0746    0.4254 H   0  0  0  0  0  0  0  0  0  0  0  0
    6.7738    5.9074    2.4515 H   0  0  0  0  0  0  0  0  0  0  0  0
    7.2945    4.2216    2.3114 H   0  0  0  0  0  0  0  0  0  0  0  0
    5.5892    4.6075    2.6606 H   0  0  0  0  0  0  0  0  0  0  0  0
    6.5077   -0.6444    2.3450 H   0  0  0  0  0  0  0  0  0  0  0  0
  1  2  1  0
  1 22  1  0
  1 23  1  0
  1 24  1  0
  2  3  1  0
  2 25  1  0
  2 26  1  0
  3  4  1  0
  3 27  1  0
  3 28  1  0
  4  5  1  0
  4  6  1  0
  4 19  1  1
  5 29  1  0
  5 30  1  0
  5 31  1  0
  6  7  1  0
  6 32  1  0
  7  8  2  0
  7  9  1  0
  9 10  1  0
  9 33  1  0
 10 11  2  0
 10 17  1  0
 11 12  1  0
 11 34  1  0
 12 13  1  0
 12 14  2  0
 14 15  1  0
 14 16  1  0
 16 17  2  0
 16 35  1  0
 17 18  1  0
 18 36  1  0
 18 37  1  0
 18 38  1  0
 19 20  2  0
 19 21  1  0
 21 39  1  0
M  END

