
     RDKit          3D

 67 69  0  0  0  0  0  0  0  0999 V2000
   10.5457   -1.2008   -5.1974 C   0  0  0  0  0  0  0  0  0  0  0  0
    9.4915   -0.3076   -4.5929 C   0  0  0  0  0  0  0  0  0  0  0  0
    9.5263    1.0767   -4.8047 C   0  0  0  0  0  0  0  0  0  0  0  0
    8.5600    1.9245   -4.2572 C   0  0  0  0  0  0  0  0  0  0  0  0
    7.5313    1.3914   -3.4738 C   0  0  0  0  0  0  0  0  0  0  0  0
    6.5563    2.2695   -2.8830 N   0  0  0  0  0  0  0  0  0  0  0  0
    6.6953    2.5688   -1.4395 C   0  0  0  0  0  0  0  0  0  0  0  0
    7.7800    3.6082   -1.1482 C   0  0  0  0  0  0  0  0  0  0  0  0
    7.4944    4.9922   -1.7303 C   0  0  0  0  0  0  0  0  0  0  0  0
    6.3061    5.6813   -1.0537 C   0  0  0  0  0  0  0  0  0  0  0  0
    5.9627    5.4118    0.0863 O   0  0  0  0  0  0  0  0  0  0  0  0
    5.6846    6.6318   -1.8126 N   0  0  0  0  0  0  0  0  0  0  0  0
    4.5322    7.3899   -1.3544 C   0  0  0  0  0  0  0  0  0  0  0  0
    3.4039    7.4151   -2.3663 C   0  0  0  0  0  0  0  0  0  0  0  0
    2.9175    6.2253   -2.9370 C   0  0  0  0  0  0  0  0  0  0  0  0
    1.8639    6.2564   -3.8508 C   0  0  0  0  0  0  0  0  0  0  0  0
    1.2589    7.4689   -4.2217 C   0  0  0  0  0  0  0  0  0  0  0  0
    0.1439    7.4975   -5.2515 C   0  0  0  0  0  0  0  0  0  0  0  0
   -0.7873    6.3962   -5.1300 N   0  0  0  0  0  0  0  0  0  0  0  0
   -1.6443    6.4090   -3.9498 C   0  0  0  0  0  0  0  0  0  0  0  0
   -2.6430    5.2692   -4.2147 C   0  0  0  0  0  0  0  0  0  0  0  0
   -2.6886    5.1494   -5.7642 C   0  0  0  0  0  0  0  0  0  0  0  0
   -1.6905    6.2130   -6.2582 C   0  0  0  0  0  0  0  0  0  0  0  0
    1.7408    8.6508   -3.6470 C   0  0  0  0  0  0  0  0  0  0  0  0
    2.8034    8.6247   -2.7374 C   0  0  0  0  0  0  0  0  0  0  0  0
    4.9777    2.1899   -3.5218 S   0  0  1  0  0  0  0  0  0  0  0  0
    5.1461    3.0563   -5.0884 C   0  0  0  0  0  0  0  0  0  0  0  0
    4.6001    0.8100   -3.8399 O   0  0  0  0  0  0  0  0  0  0  0  0
    4.1243    2.9988   -2.6429 O   0  0  0  0  0  0  0  0  0  0  0  0
    7.4875    0.0056   -3.2574 C   0  0  0  0  0  0  0  0  0  0  0  0
    8.4478   -0.8522   -3.8044 C   0  0  0  0  0  0  0  0  0  0  0  0
    8.3647   -2.3384   -3.5581 C   0  0  0  0  0  0  0  0  0  0  0  0
   11.2788   -0.6214   -5.7768 H   0  0  0  0  0  0  0  0  0  0  0  0
   10.1022   -1.9535   -5.8712 H   0  0  0  0  0  0  0  0  0  0  0  0
   11.0958   -1.7616   -4.4227 H   0  0  0  0  0  0  0  0  0  0  0  0
   10.3297    1.5027   -5.4122 H   0  0  0  0  0  0  0  0  0  0  0  0
    8.6023    3.0020   -4.4299 H   0  0  0  0  0  0  0  0  0  0  0  0
    6.9208    1.6360   -0.8935 H   0  0  0  0  0  0  0  0  0  0  0  0
    5.7268    2.9356   -1.0761 H   0  0  0  0  0  0  0  0  0  0  0  0
    8.7555    3.2477   -1.5140 H   0  0  0  0  0  0  0  0  0  0  0  0
    7.8554    3.7005   -0.0534 H   0  0  0  0  0  0  0  0  0  0  0  0
    7.3291    4.9313   -2.8191 H   0  0  0  0  0  0  0  0  0  0  0  0
    8.3744    5.6438   -1.5838 H   0  0  0  0  0  0  0  0  0  0  0  0
    6.0149    6.7965   -2.7560 H   0  0  0  0  0  0  0  0  0  0  0  0
    4.8215    8.4257   -1.1001 H   0  0  0  0  0  0  0  0  0  0  0  0
    4.2152    6.9086   -0.4157 H   0  0  0  0  0  0  0  0  0  0  0  0
    3.3627    5.2637   -2.6661 H   0  0  0  0  0  0  0  0  0  0  0  0
    1.4799    5.3268   -4.2779 H   0  0  0  0  0  0  0  0  0  0  0  0
    0.5938    7.4408   -6.2601 H   0  0  0  0  0  0  0  0  0  0  0  0
   -0.3716    8.4863   -5.2043 H   0  0  0  0  0  0  0  0  0  0  0  0
   -2.1824    7.3824   -3.8562 H   0  0  0  0  0  0  0  0  0  0  0  0
   -1.0566    6.2722   -3.0294 H   0  0  0  0  0  0  0  0  0  0  0  0
   -3.6285    5.4843   -3.7752 H   0  0  0  0  0  0  0  0  0  0  0  0
   -2.2833    4.3316   -3.7654 H   0  0  0  0  0  0  0  0  0  0  0  0
   -3.6951    5.3204   -6.1747 H   0  0  0  0  0  0  0  0  0  0  0  0
   -2.3728    4.1451   -6.0838 H   0  0  0  0  0  0  0  0  0  0  0  0
   -2.2288    7.1585   -6.5074 H   0  0  0  0  0  0  0  0  0  0  0  0
   -1.1359    5.9087   -7.1614 H   0  0  0  0  0  0  0  0  0  0  0  0
    1.2819    9.6079   -3.9130 H   0  0  0  0  0  0  0  0  0  0  0  0
    3.1644    9.5623   -2.3035 H   0  0  0  0  0  0  0  0  0  0  0  0
    5.9127    2.5561   -5.6935 H   0  0  0  0  0  0  0  0  0  0  0  0
    5.4032    4.1037   -4.8904 H   0  0  0  0  0  0  0  0  0  0  0  0
    4.1649    2.9804   -5.5761 H   0  0  0  0  0  0  0  0  0  0  0  0
    6.6673   -0.4068   -2.6671 H   0  0  0  0  0  0  0  0  0  0  0  0
    7.4988   -2.5920   -2.9305 H   0  0  0  0  0  0  0  0  0  0  0  0
    9.2703   -2.7184   -3.0553 H   0  0  0  0  0  0  0  0  0  0  0  0
    8.2711   -2.9009   -4.5026 H   0  0  0  0  0  0  0  0  0  0  0  0
  1  2  1  0
  1 33  1  0
  1 34  1  0
  1 35  1  0
  2  3  2  0
  2 31  1  0
  3  4  1  0
  3 36  1  0
  4  5  2  0
  4 37  1  0
  5  6  1  0
  5 30  1  0
  6  7  1  0
 26  6  1  1
  7  8  1  0
  7 38  1  0
  7 39  1  0
  8  9  1  0
  8 40  1  0
  8 41  1  0
  9 10  1  0
  9 42  1  0
  9 43  1  0
 10 11  2  0
 10 12  1  0
 12 13  1  0
 12 44  1  0
 13 14  1  0
 13 45  1  0
 13 46  1  0
 14 15  2  0
 14 25  1  0
 15 16  1  0
 15 47  1  0
 16 17  2  0
 16 48  1  0
 17 18  1  0
 17 24  1  0
 18 19  1  0
 18 49  1  0
 18 50  1  0
 19 20  1  0
 19 23  1  0
 20 21  1  0
 20 51  1  0
 20 52  1  0
 21 22  1  0
 21 53  1  0
 21 54  1  0
 22 23  1  0
 22 55  1  0
 22 56  1  0
 23 57  1  0
 23 58  1  0
 24 25  2  0
 24 59  1  0
 25 60  1  0
 26 27  1  0
 26 28  2  0
 26 29  2  0
 27 61  1  0
 27 62  1  0
 27 63  1  0
 30 31  2  0
 30 64  1  0
 31 32  1  0
 32 65  1  0
 32 66  1  0
 32 67  1  0
M  END

