
     RDKit          3D

 38 38  0  0  0  0  0  0  0  0999 V2000
    0.6953   -0.8353   -0.4618 C   0  0  0  0  0  0  0  0  0  0  0  0
    2.0209   -0.4975    0.0137 N   0  0  0  0  0  0  0  0  0  0  0  0
    2.8933   -1.4290    0.5022 C   0  0  0  0  0  0  0  0  0  0  0  0
    2.6129   -2.6113    0.6124 O   0  0  0  0  0  0  0  0  0  0  0  0
    4.2720   -0.8861    0.8786 C   0  0  0  0  0  0  0  0  0  0  0  0
    4.9485   -1.7376    1.9485 C   0  0  0  0  0  0  0  0  0  0  0  0
    6.3344   -1.3310    2.1508 N   0  0  0  0  0  0  0  0  0  0  0  0
    7.1010   -2.1584    3.0784 C   0  0  0  0  0  0  0  0  0  0  0  0
    8.6082   -1.9505    2.8440 C   0  0  1  0  0  0  0  0  0  0  0  0
    8.8914   -2.0780    1.4742 O   0  0  0  0  0  0  0  0  0  0  0  0
    9.1040   -0.6132    3.4030 C   0  0  0  0  0  0  0  0  0  0  0  0
   10.5167   -0.6183    3.3560 O   0  0  0  0  0  0  0  0  0  0  0  0
   11.2105    0.4749    3.7349 C   0  0  0  0  0  0  0  0  0  0  0  0
   10.6315    1.6682    4.1961 C   0  0  0  0  0  0  0  0  0  0  0  0
   11.4335    2.7529    4.5691 C   0  0  0  0  0  0  0  0  0  0  0  0
   12.8227    2.6672    4.4910 C   0  0  0  0  0  0  0  0  0  0  0  0
   13.4138    1.4831    4.0358 C   0  0  0  0  0  0  0  0  0  0  0  0
   12.6212    0.3998    3.6626 C   0  0  0  0  0  0  0  0  0  0  0  0
   13.3676   -1.0723    3.0997 Cl  0  0  0  0  0  0  0  0  0  0  0  0
   -0.0832   -0.2714    0.0790 H   0  0  0  0  0  0  0  0  0  0  0  0
    0.5425   -1.9079   -0.2851 H   0  0  0  0  0  0  0  0  0  0  0  0
    0.5844   -0.6357   -1.5416 H   0  0  0  0  0  0  0  0  0  0  0  0
    2.3313    0.4637   -0.0549 H   0  0  0  0  0  0  0  0  0  0  0  0
    4.1968    0.1685    1.1992 H   0  0  0  0  0  0  0  0  0  0  0  0
    4.9016   -0.8932   -0.0292 H   0  0  0  0  0  0  0  0  0  0  0  0
    4.9286   -2.7867    1.6166 H   0  0  0  0  0  0  0  0  0  0  0  0
    4.3491   -1.7033    2.8837 H   0  0  0  0  0  0  0  0  0  0  0  0
    6.3666   -0.3532    2.4404 H   0  0  0  0  0  0  0  0  0  0  0  0
    6.8710   -3.2103    2.8467 H   0  0  0  0  0  0  0  0  0  0  0  0
    6.8370   -2.0004    4.1457 H   0  0  0  0  0  0  0  0  0  0  0  0
    9.1627   -2.7395    3.3819 H   0  0  0  0  0  0  0  0  0  0  0  0
    8.0933   -1.7344    1.0320 H   0  0  0  0  0  0  0  0  0  0  0  0
    8.7585   -0.4790    4.4469 H   0  0  0  0  0  0  0  0  0  0  0  0
    8.7048    0.2211    2.7946 H   0  0  0  0  0  0  0  0  0  0  0  0
    9.5474    1.7559    4.2671 H   0  0  0  0  0  0  0  0  0  0  0  0
   10.9577    3.6703    4.9243 H   0  0  0  0  0  0  0  0  0  0  0  0
   13.4508    3.5121    4.7816 H   0  0  0  0  0  0  0  0  0  0  0  0
   14.4987    1.3869    3.9653 H   0  0  0  0  0  0  0  0  0  0  0  0
  1  2  1  0
  1 20  1  0
  1 21  1  0
  1 22  1  0
  2  3  1  0
  2 23  1  0
  3  4  2  0
  3  5  1  0
  5  6  1  0
  5 24  1  0
  5 25  1  0
  6  7  1  0
  6 26  1  0
  6 27  1  0
  7  8  1  0
  7 28  1  0
  8  9  1  0
  8 29  1  0
  8 30  1  0
  9 10  1  0
  9 11  1  0
  9 31  1  1
 10 32  1  0
 11 12  1  0
 11 33  1  0
 11 34  1  0
 12 13  1  0
 13 14  2  0
 13 18  1  0
 14 15  1  0
 14 35  1  0
 15 16  2  0
 15 36  1  0
 16 17  1  0
 16 37  1  0
 17 18  2  0
 17 38  1  0
 18 19  1  0
M  END

