
     RDKit          3D

 41 41  0  0  0  0  0  0  0  0999 V2000
    1.2274   -0.8796   -0.8922 C   0  0  0  0  0  0  0  0  0  0  0  0
    2.3867   -0.0884   -0.2599 C   0  0  1  0  0  0  0  0  0  0  0  0
    1.8130    1.0780    0.5628 C   0  0  0  0  0  0  0  0  0  0  0  0
    3.2160   -0.9725    0.6915 C   0  0  0  0  0  0  0  0  0  0  0  0
    3.2604    0.4534   -1.3547 N   0  0  0  0  0  0  0  0  0  0  0  0
    3.2500    1.7517   -1.7754 C   0  0  0  0  0  0  0  0  0  0  0  0
    4.1098    1.8981   -2.8599 C   0  0  0  0  0  0  0  0  0  0  0  0
    4.3729    3.1110   -3.5561 C   0  0  0  0  0  0  0  0  0  0  0  0
    4.5928    4.0996   -4.1271 N   0  0  0  0  0  0  0  0  0  0  0  0
    4.6678    0.6125   -3.1146 C   0  0  0  0  0  0  0  0  0  0  0  0
    4.1324   -0.2589   -2.1894 C   0  0  0  0  0  0  0  0  0  0  0  0
    4.4367   -1.6213   -2.0360 N   0  0  0  0  0  0  0  0  0  0  0  0
    3.8159   -2.6352   -2.7677 C   0  0  0  0  0  0  0  0  0  0  0  0
    2.7872   -2.4579   -3.4003 O   0  0  0  0  0  0  0  0  0  0  0  0
    4.4392   -3.8526   -2.6647 N   0  0  0  0  0  0  0  0  0  0  0  0
    3.9526   -5.0079   -3.3927 C   0  0  0  0  0  0  0  0  0  0  0  0
    4.4560   -5.1041   -4.8449 C   0  0  0  0  0  0  0  0  0  0  0  0
    5.9716   -4.8537   -5.0176 C   0  0  0  0  0  0  0  0  0  0  0  0
    6.8244   -5.6665   -4.0550 C   0  0  0  0  0  0  0  0  0  0  0  0
    6.9863   -5.3624   -2.8981 O   0  0  0  0  0  0  0  0  0  0  0  0
    7.3748   -6.8006   -4.5315 O   0  0  0  0  0  0  0  0  0  0  0  0
    0.6057   -1.3288   -0.1017 H   0  0  0  0  0  0  0  0  0  0  0  0
    1.5866   -1.6721   -1.5616 H   0  0  0  0  0  0  0  0  0  0  0  0
    0.5901   -0.2096   -1.4903 H   0  0  0  0  0  0  0  0  0  0  0  0
    1.2178    0.6617    1.3882 H   0  0  0  0  0  0  0  0  0  0  0  0
    1.1420    1.7179   -0.0282 H   0  0  0  0  0  0  0  0  0  0  0  0
    2.6068    1.7028    1.0002 H   0  0  0  0  0  0  0  0  0  0  0  0
    2.5969   -1.2502    1.5579 H   0  0  0  0  0  0  0  0  0  0  0  0
    4.0968   -0.4266    1.0653 H   0  0  0  0  0  0  0  0  0  0  0  0
    3.5532   -1.8965    0.2086 H   0  0  0  0  0  0  0  0  0  0  0  0
    2.6434    2.5131   -1.3001 H   0  0  0  0  0  0  0  0  0  0  0  0
    5.3848    0.3502   -3.8885 H   0  0  0  0  0  0  0  0  0  0  0  0
    5.3004   -1.8488   -1.5529 H   0  0  0  0  0  0  0  0  0  0  0  0
    5.3878   -3.9304   -2.3068 H   0  0  0  0  0  0  0  0  0  0  0  0
    2.8542   -4.9674   -3.4043 H   0  0  0  0  0  0  0  0  0  0  0  0
    4.2477   -5.9054   -2.8272 H   0  0  0  0  0  0  0  0  0  0  0  0
    3.9237   -4.3621   -5.4604 H   0  0  0  0  0  0  0  0  0  0  0  0
    4.1886   -6.0993   -5.2407 H   0  0  0  0  0  0  0  0  0  0  0  0
    6.1870   -3.7960   -4.8062 H   0  0  0  0  0  0  0  0  0  0  0  0
    6.2622   -5.0387   -6.0652 H   0  0  0  0  0  0  0  0  0  0  0  0
    7.1733   -6.9071   -5.4719 H   0  0  0  0  0  0  0  0  0  0  0  0
  2  1  1  6
  1 22  1  0
  1 23  1  0
  1 24  1  0
  2  3  1  0
  2  4  1  0
  2  5  1  0
  3 25  1  0
  3 26  1  0
  3 27  1  0
  4 28  1  0
  4 29  1  0
  4 30  1  0
  5  6  1  0
  5 11  1  0
  6  7  2  0
  6 31  1  0
  7  8  1  0
  7 10  1  0
  8  9  3  0
 10 11  2  0
 10 32  1  0
 11 12  1  0
 12 13  1  0
 12 33  1  0
 13 14  2  0
 13 15  1  0
 15 16  1  0
 15 34  1  0
 16 17  1  0
 16 35  1  0
 16 36  1  0
 17 18  1  0
 17 37  1  0
 17 38  1  0
 18 19  1  0
 18 39  1  0
 18 40  1  0
 19 20  2  0
 19 21  1  0
 21 41  1  0
M  END

