
     RDKit          3D

 64 69  0  0  0  0  0  0  0  0999 V2000
   -2.1764   -5.4276    1.4634 C   0  0  0  0  0  0  0  0  0  0  0  0
   -2.2462   -4.4002    2.4419 O   0  0  0  0  0  0  0  0  0  0  0  0
   -2.5040   -3.1315    2.0201 C   0  0  0  0  0  0  0  0  0  0  0  0
   -3.6796   -2.5094    2.4472 C   0  0  0  0  0  0  0  0  0  0  0  0
   -3.9678   -1.1868    2.1115 C   0  0  0  0  0  0  0  0  0  0  0  0
   -3.0763   -0.4515    1.3107 C   0  0  0  0  0  0  0  0  0  0  0  0
   -3.3223    0.9178    0.8642 C   0  0  0  0  0  0  0  0  0  0  0  0
   -4.0133    1.9535    1.4072 C   0  0  0  0  0  0  0  0  0  0  0  0
   -4.1372    3.2118    0.5702 C   0  0  0  0  0  0  0  0  0  0  0  0
   -3.6917    3.4263   -0.5396 O   0  0  0  0  0  0  0  0  0  0  0  0
   -4.8878    4.0948    1.3267 N   0  0  0  0  0  0  0  0  0  0  0  0
   -5.2104    3.5633    2.5776 C   0  0  0  0  0  0  0  0  0  0  0  0
   -5.8905    4.1549    3.6303 C   0  0  0  0  0  0  0  0  0  0  0  0
   -6.0594    3.4360    4.8272 C   0  0  0  0  0  0  0  0  0  0  0  0
   -5.5326    2.1420    4.9623 C   0  0  0  0  0  0  0  0  0  0  0  0
   -5.6233    1.3431    6.0638 O   0  0  0  0  0  0  0  0  0  0  0  0
   -6.1607    1.7381    7.3202 C   0  0  1  0  0  0  0  0  0  0  0  0
   -5.4082    2.8711    8.0525 C   0  0  0  0  0  0  0  0  0  0  0  0
   -6.4578    3.4177    9.0292 C   0  0  0  0  0  0  0  0  0  0  0  0
   -7.7564    3.4163    8.1997 C   0  0  0  0  0  0  0  0  0  0  0  0
   -7.6711    2.1342    7.3409 C   0  0  0  0  0  0  0  0  0  0  0  0
   -4.8493    1.5511    3.8792 C   0  0  0  0  0  0  0  0  0  0  0  0
   -4.6946    2.2419    2.6786 C   0  0  0  0  0  0  0  0  0  0  0  0
   -1.9029   -1.0925    0.8484 C   0  0  0  0  0  0  0  0  0  0  0  0
   -1.5898   -2.4055    1.2103 C   0  0  0  0  0  0  0  0  0  0  0  0
   -0.4512   -3.0590    0.8615 O   0  0  0  0  0  0  0  0  0  0  0  0
    0.5918   -2.3855    0.1526 C   0  0  1  0  0  0  0  0  0  0  0  0
    0.7126   -1.3753    0.5774 H   0  0  0  0  0  0  0  0  0  0  0  0
    1.8862   -3.2357    0.2805 C   0  0  0  0  0  0  0  0  0  0  0  0
    2.2468   -3.5747   -1.1831 C   0  0  2  0  0  0  0  0  0  0  0  0
    2.9314   -4.4299   -1.2809 H   0  0  0  0  0  0  0  0  0  0  0  0
    2.7449   -2.2865   -1.8754 C   0  0  0  0  0  0  0  0  0  0  0  0
    1.4454   -1.4266   -1.9851 C   0  0  0  0  0  0  0  0  0  0  0  0
    0.3577   -2.3441   -1.3769 C   0  0  1  0  0  0  0  0  0  0  0  0
    0.8463   -3.7429   -1.8076 C   0  0  0  0  0  0  0  0  0  0  0  0
   -2.0221   -6.3691    2.0089 H   0  0  0  0  0  0  0  0  0  0  0  0
   -1.3418   -5.2730    0.7628 H   0  0  0  0  0  0  0  0  0  0  0  0
   -3.1211   -5.4968    0.8936 H   0  0  0  0  0  0  0  0  0  0  0  0
   -4.3666   -3.0978    3.0591 H   0  0  0  0  0  0  0  0  0  0  0  0
   -4.9117   -0.7444    2.4273 H   0  0  0  0  0  0  0  0  0  0  0  0
   -2.8646    1.1796   -0.0989 H   0  0  0  0  0  0  0  0  0  0  0  0
   -5.1125    5.0277    1.0051 H   0  0  0  0  0  0  0  0  0  0  0  0
   -6.2889    5.1687    3.5455 H   0  0  0  0  0  0  0  0  0  0  0  0
   -6.6000    3.9119    5.6419 H   0  0  0  0  0  0  0  0  0  0  0  0
   -6.0421    0.8188    7.9129 H   0  0  0  0  0  0  0  0  0  0  0  0
   -5.1045    3.6552    7.3417 H   0  0  0  0  0  0  0  0  0  0  0  0
   -4.4926    2.5054    8.5414 H   0  0  0  0  0  0  0  0  0  0  0  0
   -6.2009    4.4095    9.4328 H   0  0  0  0  0  0  0  0  0  0  0  0
   -6.5618    2.7359    9.8922 H   0  0  0  0  0  0  0  0  0  0  0  0
   -7.7795    4.3125    7.5557 H   0  0  0  0  0  0  0  0  0  0  0  0
   -8.6639    3.4549    8.8215 H   0  0  0  0  0  0  0  0  0  0  0  0
   -8.0671    2.2717    6.3247 H   0  0  0  0  0  0  0  0  0  0  0  0
   -8.2560    1.3182    7.7924 H   0  0  0  0  0  0  0  0  0  0  0  0
   -4.4463    0.5512    4.0294 H   0  0  0  0  0  0  0  0  0  0  0  0
   -1.2262   -0.5276    0.2078 H   0  0  0  0  0  0  0  0  0  0  0  0
    1.6511   -4.1412    0.8590 H   0  0  0  0  0  0  0  0  0  0  0  0
    2.6909   -2.7009    0.8073 H   0  0  0  0  0  0  0  0  0  0  0  0
    3.1577   -2.5125   -2.8711 H   0  0  0  0  0  0  0  0  0  0  0  0
    3.5411   -1.7883   -1.3004 H   0  0  0  0  0  0  0  0  0  0  0  0
    1.2054   -1.1932   -3.0334 H   0  0  0  0  0  0  0  0  0  0  0  0
    1.5231   -0.4644   -1.4537 H   0  0  0  0  0  0  0  0  0  0  0  0
   -0.6694   -2.0717   -1.6564 H   0  0  0  0  0  0  0  0  0  0  0  0
    0.8650   -3.8754   -2.9011 H   0  0  0  0  0  0  0  0  0  0  0  0
    0.2620   -4.5626   -1.3617 H   0  0  0  0  0  0  0  0  0  0  0  0
  1  2  1  0
  1 36  1  0
  1 37  1  0
  1 38  1  0
  2  3  1  0
  3  4  2  0
  3 25  1  0
  4  5  1  0
  4 39  1  0
  5  6  2  0
  5 40  1  0
  6  7  1  0
  6 24  1  0
  7  8  2  0
  7 41  1  0
  8  9  1  0
  8 23  1  0
  9 10  2  0
  9 11  1  0
 11 12  1  0
 11 42  1  0
 12 13  1  0
 12 23  2  0
 13 14  2  0
 13 43  1  0
 14 15  1  0
 14 44  1  0
 15 16  1  0
 15 22  2  0
 16 17  1  0
 17 18  1  0
 17 21  1  0
 17 45  1  1
 18 19  1  0
 18 46  1  0
 18 47  1  0
 19 20  1  0
 19 48  1  0
 19 49  1  0
 20 21  1  0
 20 50  1  0
 20 51  1  0
 21 52  1  0
 21 53  1  0
 22 23  1  0
 22 54  1  0
 24 25  2  0
 24 55  1  0
 25 26  1  0
 26 27  1  0
 27 28  1  1
 27 29  1  0
 27 34  1  0
 29 30  1  0
 29 56  1  0
 29 57  1  0
 30 31  1  1
 30 32  1  0
 30 35  1  0
 32 33  1  0
 32 58  1  0
 32 59  1  0
 33 34  1  0
 33 60  1  0
 33 61  1  0
 34 35  1  0
 34 62  1  1
 35 63  1  0
 35 64  1  0
M  END

