
     RDKit          3D

 34 35  0  0  0  0  0  0  0  0999 V2000
    0.5297   -0.4105   -0.5525 C   0  0  0  0  0  0  0  0  0  0  0  0
    2.0549   -0.3614   -0.3672 C   0  0  0  0  0  0  0  0  0  0  0  0
    2.7544   -1.4098   -1.1959 C   0  0  0  0  0  0  0  0  0  0  0  0
    3.1551   -1.0721   -2.4183 N   0  0  0  0  0  0  0  0  0  0  0  0
    3.7301   -2.0247   -3.1745 C   0  0  0  0  0  0  0  0  0  0  0  0
    4.1464   -1.6417   -4.4135 N   0  0  0  0  0  0  0  0  0  0  0  0
    3.9193   -3.3519   -2.7134 C   0  0  0  0  0  0  0  0  0  0  0  0
    4.5643   -4.4164   -3.5550 C   0  0  0  0  0  0  0  0  0  0  0  0
    3.4434   -3.5578   -1.4200 C   0  0  0  0  0  0  0  0  0  0  0  0
    3.6001   -4.8170   -0.8942 O   0  0  0  0  0  0  0  0  0  0  0  0
    3.1098   -5.1447    0.3290 C   0  0  0  0  0  0  0  0  0  0  0  0
    4.0330   -5.6545    1.2577 C   0  0  0  0  0  0  0  0  0  0  0  0
    5.3135   -5.7318    0.8918 F   0  0  0  0  0  0  0  0  0  0  0  0
    3.6547   -6.0723    2.5287 C   0  0  0  0  0  0  0  0  0  0  0  0
    2.3171   -5.9607    2.9177 C   0  0  0  0  0  0  0  0  0  0  0  0
    1.3761   -5.4437    2.0304 C   0  0  0  0  0  0  0  0  0  0  0  0
    1.7687   -5.0568    0.7463 C   0  0  0  0  0  0  0  0  0  0  0  0
    0.7131   -4.5910   -0.1670 N   0  0  0  0  0  0  0  0  0  0  0  0
    0.8551   -4.8137   -1.3572 O   0  0  0  0  0  0  0  0  0  0  0  0
   -0.2566   -4.0442    0.3335 O   0  0  0  0  0  0  0  0  0  0  0  0
    2.8814   -2.6320   -0.6606 N   0  0  0  0  0  0  0  0  0  0  0  0
    0.0371    0.3576    0.0646 H   0  0  0  0  0  0  0  0  0  0  0  0
    0.1266   -1.3931   -0.2620 H   0  0  0  0  0  0  0  0  0  0  0  0
    0.2588   -0.2278   -1.6044 H   0  0  0  0  0  0  0  0  0  0  0  0
    2.3060   -0.5313    0.6912 H   0  0  0  0  0  0  0  0  0  0  0  0
    2.4382    0.6263   -0.6645 H   0  0  0  0  0  0  0  0  0  0  0  0
    3.8831   -0.7140   -4.7207 H   0  0  0  0  0  0  0  0  0  0  0  0
    4.4179   -2.3226   -5.1072 H   0  0  0  0  0  0  0  0  0  0  0  0
    3.9490   -4.6641   -4.4391 H   0  0  0  0  0  0  0  0  0  0  0  0
    4.7037   -5.3408   -2.9814 H   0  0  0  0  0  0  0  0  0  0  0  0
    5.5542   -4.0923   -3.9218 H   0  0  0  0  0  0  0  0  0  0  0  0
    4.4218   -6.4645    3.1991 H   0  0  0  0  0  0  0  0  0  0  0  0
    2.0102   -6.2772    3.9163 H   0  0  0  0  0  0  0  0  0  0  0  0
    0.3277   -5.3316    2.3049 H   0  0  0  0  0  0  0  0  0  0  0  0
  1  2  1  0
  1 22  1  0
  1 23  1  0
  1 24  1  0
  2  3  1  0
  2 25  1  0
  2 26  1  0
  3  4  2  0
  3 21  1  0
  4  5  1  0
  5  6  1  0
  5  7  2  0
  6 27  1  0
  6 28  1  0
  7  8  1  0
  7  9  1  0
  8 29  1  0
  8 30  1  0
  8 31  1  0
  9 10  1  0
  9 21  2  0
 10 11  1  0
 11 12  2  0
 11 17  1  0
 12 13  1  0
 12 14  1  0
 14 15  2  0
 14 32  1  0
 15 16  1  0
 15 33  1  0
 16 17  2  0
 16 34  1  0
 17 18  1  0
 18 19  2  0
 18 20  1  0
M  CHG  2  18   1  20  -1
M  END

