
     RDKit          3D

 21 22  0  0  0  0  0  0  0  0999 V2000
    1.1122    0.7668   -0.1924 O   0  0  0  0  0  0  0  0  0  0  0  0
    2.1943    0.2290   -0.0174 C   0  0  0  0  0  0  0  0  0  0  0  0
    2.6998   -0.0235    1.2391 N   0  0  0  0  0  0  0  0  0  0  0  0
    1.9944    0.3141    2.4412 C   0  0  1  0  0  0  0  0  0  0  0  0
    1.8766   -0.7421    3.5658 C   0  0  0  0  0  0  0  0  0  0  0  0
    2.3753    0.1860    4.5379 O   0  0  0  0  0  0  0  0  0  0  0  0
    2.7096    1.1499    3.5302 C   0  0  0  0  0  0  0  0  0  0  0  0
    3.0446   -0.1896   -1.1598 C   0  0  0  0  0  0  0  0  0  0  0  0
    2.7684    0.1240   -2.5202 C   0  0  0  0  0  0  0  0  0  0  0  0
    3.6782   -0.3832   -3.3386 N   0  0  0  0  0  0  0  0  0  0  0  0
    4.5389   -1.0268   -2.5322 N   0  0  0  0  0  0  0  0  0  0  0  0
    5.3309   -1.5116   -2.9382 H   0  0  0  0  0  0  0  0  0  0  0  0
    4.2113   -0.9468   -1.2203 C   0  0  0  0  0  0  0  0  0  0  0  0
    3.6312   -0.4120    1.3252 H   0  0  0  0  0  0  0  0  0  0  0  0
    1.0297    0.7362    2.1323 H   0  0  0  0  0  0  0  0  0  0  0  0
    2.5460   -1.6150    3.4277 H   0  0  0  0  0  0  0  0  0  0  0  0
    0.8635   -1.1086    3.8062 H   0  0  0  0  0  0  0  0  0  0  0  0
    3.8034    1.2417    3.3751 H   0  0  0  0  0  0  0  0  0  0  0  0
    2.2975    2.1512    3.7443 H   0  0  0  0  0  0  0  0  0  0  0  0
    1.9295    0.7060   -2.8980 H   0  0  0  0  0  0  0  0  0  0  0  0
    4.8137   -1.4361   -0.4568 H   0  0  0  0  0  0  0  0  0  0  0  0
  1  2  2  0
  2  3  1  0
  2  8  1  0
  3  4  1  0
  3 14  1  0
  4  5  1  0
  4  7  1  0
  4 15  1  6
  5  6  1  0
  5 16  1  0
  5 17  1  0
  6  7  1  0
  7 18  1  0
  7 19  1  0
  8  9  1  0
  8 13  2  0
  9 10  2  0
  9 20  1  0
 10 11  1  0
 11 12  1  0
 11 13  1  0
 13 21  1  0
M  END

