
     RDKit          3D

 33 34  0  0  0  0  0  0  0  0999 V2000
    3.4001    2.1522    5.3760 O   0  0  0  0  0  0  0  0  0  0  0  0
    3.7282    1.7441    4.2920 C   0  0  0  0  0  0  0  0  0  0  0  0
    3.9231    2.6104    3.2651 O   0  0  0  0  0  0  0  0  0  0  0  0
    3.9468    0.2986    4.0174 C   0  0  0  0  0  0  0  0  0  0  0  0
    4.6755   -0.2031    2.9982 C   0  0  0  0  0  0  0  0  0  0  0  0
    4.9559   -1.6092    2.7380 C   0  0  0  0  0  0  0  0  0  0  0  0
    5.7347   -2.0307    1.6755 C   0  0  0  0  0  0  0  0  0  0  0  0
    5.8949   -3.7434    1.6110 S   0  0  0  0  0  0  0  0  0  0  0  0
    4.8975   -3.9434    3.0354 C   0  0  0  0  0  0  0  0  0  0  0  0
    4.6079   -5.3076    3.5989 C   0  0  0  0  0  0  0  0  0  0  0  0
    3.9594   -6.2012    2.6569 N   0  0  0  0  0  0  0  0  0  0  0  0
    4.4868   -7.4201    2.3139 C   0  0  0  0  0  0  0  0  0  0  0  0
    5.5374   -7.8334    2.7792 O   0  0  0  0  0  0  0  0  0  0  0  0
    3.6799   -8.2306    1.3151 C   0  0  1  0  0  0  0  0  0  0  0  0
    4.4593   -8.7939    0.0895 C   0  0  0  0  0  0  0  0  0  0  0  0
    3.7340  -10.1488    0.2779 C   0  0  0  0  0  0  0  0  0  0  0  0
    3.3618   -9.7029    1.7130 C   0  0  0  0  0  0  0  0  0  0  0  0
    4.4791   -2.7283    3.5085 C   0  0  0  0  0  0  0  0  0  0  0  0
    4.0215    2.1281    2.4327 H   0  0  0  0  0  0  0  0  0  0  0  0
    3.5249   -0.3513    4.7875 H   0  0  0  0  0  0  0  0  0  0  0  0
    5.1382    0.4892    2.2833 H   0  0  0  0  0  0  0  0  0  0  0  0
    6.2214   -1.4058    0.9270 H   0  0  0  0  0  0  0  0  0  0  0  0
    3.9931   -5.1758    4.5065 H   0  0  0  0  0  0  0  0  0  0  0  0
    5.5339   -5.8209    3.9020 H   0  0  0  0  0  0  0  0  0  0  0  0
    3.0869   -5.9072    2.2347 H   0  0  0  0  0  0  0  0  0  0  0  0
    2.7699   -7.6944    1.0003 H   0  0  0  0  0  0  0  0  0  0  0  0
    5.5306   -8.8663    0.3278 H   0  0  0  0  0  0  0  0  0  0  0  0
    4.3348   -8.2659   -0.8684 H   0  0  0  0  0  0  0  0  0  0  0  0
    4.3367  -11.0637    0.1731 H   0  0  0  0  0  0  0  0  0  0  0  0
    2.8488  -10.2394   -0.3713 H   0  0  0  0  0  0  0  0  0  0  0  0
    4.0928  -10.0575    2.4545 H   0  0  0  0  0  0  0  0  0  0  0  0
    2.3443   -9.9148    2.0761 H   0  0  0  0  0  0  0  0  0  0  0  0
    3.8451   -2.6320    4.3913 H   0  0  0  0  0  0  0  0  0  0  0  0
  1  2  2  0
  2  3  1  0
  2  4  1  0
  3 19  1  0
  4  5  2  0
  4 20  1  0
  5  6  1  0
  5 21  1  0
  6  7  2  0
  6 18  1  0
  7  8  1  0
  7 22  1  0
  8  9  1  0
  9 10  1  0
  9 18  2  0
 10 11  1  0
 10 23  1  0
 10 24  1  0
 11 12  1  0
 11 25  1  0
 12 13  2  0
 12 14  1  0
 14 15  1  0
 14 17  1  0
 14 26  1  6
 15 16  1  0
 15 27  1  0
 15 28  1  0
 16 17  1  0
 16 29  1  0
 16 30  1  0
 17 31  1  0
 17 32  1  0
 18 33  1  0
M  END

