
     RDKit          3D

 63 63  0  0  0  0  0  0  0  0999 V2000
    2.5408   -2.1317   -3.1031 C   0  0  0  0  0  0  0  0  0  0  0  0
    3.4840   -1.4631   -2.1021 C   0  0  0  0  0  0  0  0  0  0  0  0
    3.9933   -0.0934   -2.5619 C   0  0  0  0  0  0  0  0  0  0  0  0
    4.9395    0.5832   -1.5658 C   0  0  0  0  0  0  0  0  0  0  0  0
    5.4383    1.9563   -2.0266 C   0  0  0  0  0  0  0  0  0  0  0  0
    6.4062    2.6110   -1.0279 C   0  0  0  0  0  0  0  0  0  0  0  0
    6.9818    3.9882   -1.3680 C   0  0  0  0  0  0  0  0  0  0  0  0
    6.3585    5.2080   -0.9749 C   0  0  0  0  0  0  0  0  0  0  0  0
    4.9155    5.4261   -0.4416 C   0  0  1  0  0  0  0  0  0  0  0  0
    4.1535    4.2756   -0.2340 O   0  0  0  0  0  0  0  0  0  0  0  0
    4.9729    6.2025    0.7565 O   0  0  0  0  0  0  0  0  0  0  0  0
    5.5599    5.5914    1.8939 C   0  0  0  0  0  0  0  0  0  0  0  0
    4.0116    6.2645   -1.4493 C   0  0  1  0  0  0  0  0  0  0  0  0
    4.0590    5.6267   -2.7059 O   0  0  0  0  0  0  0  0  0  0  0  0
    3.0943    4.6690   -3.1561 C   0  0  0  0  0  0  0  0  0  0  0  0
    2.5565    6.4661   -0.8996 C   0  0  0  0  0  0  0  0  0  0  0  0
    1.5975    6.3654   -1.6189 O   0  0  0  0  0  0  0  0  0  0  0  0
    2.4702    6.8223    0.3700 O   0  0  0  0  0  0  0  0  0  0  0  0
    4.5295    7.7235   -1.6945 C   0  0  0  0  0  0  0  0  0  0  0  0
    4.5534    8.5637   -0.8354 O   0  0  0  0  0  0  0  0  0  0  0  0
    4.9057    7.9368   -2.9490 O   0  0  0  0  0  0  0  0  0  0  0  0
    7.1000    6.3941   -1.0729 C   0  0  0  0  0  0  0  0  0  0  0  0
    8.3750    6.4212   -1.6205 C   0  0  0  0  0  0  0  0  0  0  0  0
    8.9642    5.2612   -2.1270 C   0  0  0  0  0  0  0  0  0  0  0  0
   10.3533    5.3129   -2.7481 C   0  0  0  0  0  0  0  0  0  0  0  0
   11.0195    6.6865   -2.8296 C   0  0  0  0  0  0  0  0  0  0  0  0
    8.2591    4.0358   -2.0037 C   0  0  0  0  0  0  0  0  0  0  0  0
    8.8997    2.7903   -2.6035 C   0  0  0  0  0  0  0  0  0  0  0  0
    8.6186    2.6160   -4.1081 C   0  0  0  0  0  0  0  0  0  0  0  0
    2.1947   -3.1125   -2.7401 H   0  0  0  0  0  0  0  0  0  0  0  0
    3.0361   -2.2928   -4.0754 H   0  0  0  0  0  0  0  0  0  0  0  0
    1.6475   -1.5117   -3.2880 H   0  0  0  0  0  0  0  0  0  0  0  0
    4.3481   -2.1251   -1.9096 H   0  0  0  0  0  0  0  0  0  0  0  0
    2.9708   -1.3509   -1.1297 H   0  0  0  0  0  0  0  0  0  0  0  0
    3.1301    0.5709   -2.7531 H   0  0  0  0  0  0  0  0  0  0  0  0
    4.5071   -0.2035   -3.5352 H   0  0  0  0  0  0  0  0  0  0  0  0
    5.8046   -0.0790   -1.3746 H   0  0  0  0  0  0  0  0  0  0  0  0
    4.4247    0.6890   -0.5919 H   0  0  0  0  0  0  0  0  0  0  0  0
    4.5812    2.6206   -2.2027 H   0  0  0  0  0  0  0  0  0  0  0  0
    5.9483    1.8548   -2.9987 H   0  0  0  0  0  0  0  0  0  0  0  0
    7.2465    1.9207   -0.8732 H   0  0  0  0  0  0  0  0  0  0  0  0
    5.9590    2.6226   -0.0159 H   0  0  0  0  0  0  0  0  0  0  0  0
    4.7180    3.5343    0.0108 H   0  0  0  0  0  0  0  0  0  0  0  0
    5.5575    6.3455    2.6921 H   0  0  0  0  0  0  0  0  0  0  0  0
    6.6013    5.2895    1.6903 H   0  0  0  0  0  0  0  0  0  0  0  0
    4.9786    4.7150    2.2280 H   0  0  0  0  0  0  0  0  0  0  0  0
    2.2366    5.1646   -3.6282 H   0  0  0  0  0  0  0  0  0  0  0  0
    2.7357    4.0430   -2.3302 H   0  0  0  0  0  0  0  0  0  0  0  0
    3.6235    4.0417   -3.8879 H   0  0  0  0  0  0  0  0  0  0  0  0
    3.3740    6.8333    0.7645 H   0  0  0  0  0  0  0  0  0  0  0  0
    4.7421    7.0884   -3.4195 H   0  0  0  0  0  0  0  0  0  0  0  0
    6.6791    7.3205   -0.6858 H   0  0  0  0  0  0  0  0  0  0  0  0
    8.9029    7.3740   -1.6610 H   0  0  0  0  0  0  0  0  0  0  0  0
   10.3117    4.8831   -3.7627 H   0  0  0  0  0  0  0  0  0  0  0  0
   11.0163    4.6340   -2.1817 H   0  0  0  0  0  0  0  0  0  0  0  0
   10.4297    7.3960   -3.4313 H   0  0  0  0  0  0  0  0  0  0  0  0
   12.0102    6.5968   -3.3016 H   0  0  0  0  0  0  0  0  0  0  0  0
   11.1696    7.1340   -1.8344 H   0  0  0  0  0  0  0  0  0  0  0  0
    8.5709    1.8792   -2.0872 H   0  0  0  0  0  0  0  0  0  0  0  0
    9.9888    2.8247   -2.4510 H   0  0  0  0  0  0  0  0  0  0  0  0
    7.5417    2.5067   -4.3062 H   0  0  0  0  0  0  0  0  0  0  0  0
    9.1267    1.7190   -4.4979 H   0  0  0  0  0  0  0  0  0  0  0  0
    8.9680    3.4794   -4.6945 H   0  0  0  0  0  0  0  0  0  0  0  0
  1  2  1  0
  1 30  1  0
  1 31  1  0
  1 32  1  0
  2  3  1  0
  2 33  1  0
  2 34  1  0
  3  4  1  0
  3 35  1  0
  3 36  1  0
  4  5  1  0
  4 37  1  0
  4 38  1  0
  5  6  1  0
  5 39  1  0
  5 40  1  0
  6  7  1  0
  6 41  1  0
  6 42  1  0
  7  8  2  0
  7 27  1  0
  8  9  1  0
  8 22  1  0
  9 10  1  1
  9 11  1  0
  9 13  1  0
 10 43  1  0
 11 12  1  0
 12 44  1  0
 12 45  1  0
 12 46  1  0
 13 14  1  6
 13 16  1  0
 13 19  1  0
 14 15  1  0
 15 47  1  0
 15 48  1  0
 15 49  1  0
 16 17  2  0
 16 18  1  0
 18 50  1  0
 19 20  2  0
 19 21  1  0
 21 51  1  0
 22 23  2  0
 22 52  1  0
 23 24  1  0
 23 53  1  0
 24 25  1  0
 24 27  2  0
 25 26  1  0
 25 54  1  0
 25 55  1  0
 26 56  1  0
 26 57  1  0
 26 58  1  0
 27 28  1  0
 28 29  1  0
 28 59  1  0
 28 60  1  0
 29 61  1  0
 29 62  1  0
 29 63  1  0
M  END

