
     RDKit          3D

 35 35  0  0  0  0  0  0  0  0999 V2000
    1.8910    0.5217   -1.2298 C   0  0  0  0  0  0  0  0  0  0  0  0
    2.7864    1.6164   -1.8284 C   0  0  1  0  0  0  0  0  0  0  0  0
    2.2157    2.9651   -1.7676 N   0  0  0  0  0  0  0  0  0  0  0  0
    4.1791    1.6779   -1.1766 C   0  0  0  0  0  0  0  0  0  0  0  0
    5.0023    0.3749   -1.1899 C   0  0  0  0  0  0  0  0  0  0  0  0
    5.2058   -0.1899   -2.5921 C   0  0  0  0  0  0  0  0  0  0  0  0
    4.4517   -1.0177   -3.0724 O   0  0  0  0  0  0  0  0  0  0  0  0
    6.2822    0.3528   -3.2663 N   0  0  0  0  0  0  0  0  0  0  0  0
    6.7202    0.1190   -4.5833 C   0  0  0  0  0  0  0  0  0  0  0  0
    6.0929   -0.7846   -5.4533 C   0  0  0  0  0  0  0  0  0  0  0  0
    6.6070   -0.9463   -6.7451 C   0  0  0  0  0  0  0  0  0  0  0  0
    7.7193   -0.2384   -7.1885 C   0  0  0  0  0  0  0  0  0  0  0  0
    8.3430    0.6641   -6.3136 C   0  0  0  0  0  0  0  0  0  0  0  0
    9.4298    1.3244   -6.8174 O   0  0  0  0  0  0  0  0  0  0  0  0
   10.1026    2.2461   -5.9989 C   0  0  0  0  0  0  0  0  0  0  0  0
   11.2251    2.8212   -6.7509 C   0  0  0  0  0  0  0  0  0  0  0  0
   12.1172    3.2914   -7.3183 N   0  0  0  0  0  0  0  0  0  0  0  0
    7.8503    0.8453   -5.0182 C   0  0  0  0  0  0  0  0  0  0  0  0
    0.8826    0.5708   -1.6724 H   0  0  0  0  0  0  0  0  0  0  0  0
    1.7841    0.6495   -0.1375 H   0  0  0  0  0  0  0  0  0  0  0  0
    2.2896   -0.4846   -1.4297 H   0  0  0  0  0  0  0  0  0  0  0  0
    2.9240    1.3841   -2.8996 H   0  0  0  0  0  0  0  0  0  0  0  0
    1.9767    3.1960   -0.8003 H   0  0  0  0  0  0  0  0  0  0  0  0
    1.3360    2.9960   -2.2840 H   0  0  0  0  0  0  0  0  0  0  0  0
    4.0612    1.9933   -0.1232 H   0  0  0  0  0  0  0  0  0  0  0  0
    4.7385    2.4879   -1.6733 H   0  0  0  0  0  0  0  0  0  0  0  0
    4.4976   -0.4100   -0.6097 H   0  0  0  0  0  0  0  0  0  0  0  0
    5.9763    0.5609   -0.7057 H   0  0  0  0  0  0  0  0  0  0  0  0
    6.8282    1.0294   -2.7463 H   0  0  0  0  0  0  0  0  0  0  0  0
    5.2243   -1.3412   -5.1127 H   0  0  0  0  0  0  0  0  0  0  0  0
    6.1179   -1.6506   -7.4228 H   0  0  0  0  0  0  0  0  0  0  0  0
    8.1233   -0.3616   -8.1944 H   0  0  0  0  0  0  0  0  0  0  0  0
   10.5043    1.7671   -5.0847 H   0  0  0  0  0  0  0  0  0  0  0  0
    9.4381    3.0717   -5.6775 H   0  0  0  0  0  0  0  0  0  0  0  0
    8.3234    1.5447   -4.3270 H   0  0  0  0  0  0  0  0  0  0  0  0
  1  2  1  0
  1 19  1  0
  1 20  1  0
  1 21  1  0
  2  3  1  0
  2  4  1  0
  2 22  1  6
  3 23  1  0
  3 24  1  0
  4  5  1  0
  4 25  1  0
  4 26  1  0
  5  6  1  0
  5 27  1  0
  5 28  1  0
  6  7  2  0
  6  8  1  0
  8  9  1  0
  8 29  1  0
  9 10  2  0
  9 18  1  0
 10 11  1  0
 10 30  1  0
 11 12  2  0
 11 31  1  0
 12 13  1  0
 12 32  1  0
 13 14  1  0
 13 18  2  0
 14 15  1  0
 15 16  1  0
 15 33  1  0
 15 34  1  0
 16 17  3  0
 18 35  1  0
M  END

