
     RDKit          3D

 67 69  0  0  0  0  0  0  0  0999 V2000
    1.6304   -0.2945    1.4792 C   0  0  0  0  0  0  0  0  0  0  0  0
    2.7677   -0.3195    1.0540 C   0  0  0  0  0  0  0  0  0  0  0  0
    4.1080   -0.3440    0.5535 C   0  0  0  0  0  0  0  0  0  0  0  0
    4.8493    0.8480    0.4063 C   0  0  0  0  0  0  0  0  0  0  0  0
    6.1476    0.8124   -0.0797 C   0  0  0  0  0  0  0  0  0  0  0  0
    6.7729   -0.4041   -0.4427 C   0  0  0  0  0  0  0  0  0  0  0  0
    8.1065   -0.3514   -0.9322 C   0  0  0  0  0  0  0  0  0  0  0  0
    9.2492   -0.2370   -1.3440 C   0  0  0  0  0  0  0  0  0  0  0  0
   10.5835   -0.2258   -1.8382 C   0  0  0  0  0  0  0  0  0  0  0  0
   11.3187    0.9722   -1.9797 C   0  0  0  0  0  0  0  0  0  0  0  0
   12.6167    0.9460   -2.4646 C   0  0  0  0  0  0  0  0  0  0  0  0
   13.2499   -0.2659   -2.8329 C   0  0  0  0  0  0  0  0  0  0  0  0
   14.5820   -0.2040   -3.3209 C   0  0  0  0  0  0  0  0  0  0  0  0
   15.7252   -0.0867   -3.7326 C   0  0  0  0  0  0  0  0  0  0  0  0
   17.0583   -0.0924   -4.2291 C   0  0  0  0  0  0  0  0  0  0  0  0
   17.8136    1.0900   -4.3760 C   0  0  0  0  0  0  0  0  0  0  0  0
   19.1171    1.0681   -4.8634 C   0  0  0  0  0  0  0  0  0  0  0  0
   19.7089   -0.1582   -5.2227 C   0  0  0  0  0  0  0  0  0  0  0  0
   21.0133   -0.2714   -5.7205 N   0  0  0  0  0  0  0  0  0  0  0  0
   21.9384    0.7236   -5.9548 C   0  0  0  0  0  0  0  0  0  0  0  0
   21.7702    1.9075   -5.7587 O   0  0  0  0  0  0  0  0  0  0  0  0
   23.0585    0.1480   -6.4386 O   0  0  0  0  0  0  0  0  0  0  0  0
   24.2468    0.9339   -6.7931 C   0  0  1  0  0  0  0  0  0  0  0  0
   24.7922    1.6459   -5.5510 C   0  0  0  0  0  0  0  0  0  0  0  0
   25.2262   -0.1355   -7.2801 C   0  0  0  0  0  0  0  0  0  0  0  0
   23.9080    1.9146   -7.9204 C   0  0  0  0  0  0  0  0  0  0  0  0
   18.9623   -1.3459   -5.0795 C   0  0  0  0  0  0  0  0  0  0  0  0
   17.6630   -1.3173   -4.5928 C   0  0  0  0  0  0  0  0  0  0  0  0
   12.5114   -1.4790   -2.6919 C   0  0  0  0  0  0  0  0  0  0  0  0
   13.1208   -2.7953   -3.0629 C   0  0  0  0  0  0  0  0  0  0  0  0
   14.2368   -2.9623   -3.4962 O   0  0  0  0  0  0  0  0  0  0  0  0
   12.2666   -3.8208   -2.8576 O   0  0  0  0  0  0  0  0  0  0  0  0
   12.7542   -5.1193   -3.1809 C   0  0  0  0  0  0  0  0  0  0  0  0
   11.2019   -1.4385   -2.2011 C   0  0  0  0  0  0  0  0  0  0  0  0
    6.0283   -1.6105   -0.2959 C   0  0  0  0  0  0  0  0  0  0  0  0
    6.6293   -2.9326   -0.6615 C   0  0  0  0  0  0  0  0  0  0  0  0
    7.7431   -3.1057   -1.0959 O   0  0  0  0  0  0  0  0  0  0  0  0
    5.7699   -3.9527   -0.4491 O   0  0  0  0  0  0  0  0  0  0  0  0
    6.2517   -5.2558   -0.7681 C   0  0  0  0  0  0  0  0  0  0  0  0
    4.7184   -1.5586    0.1961 C   0  0  0  0  0  0  0  0  0  0  0  0
    0.6248   -0.2738    1.8550 H   0  0  0  0  0  0  0  0  0  0  0  0
    4.3921    1.8014    0.6786 H   0  0  0  0  0  0  0  0  0  0  0  0
    6.7135    1.7390   -0.1902 H   0  0  0  0  0  0  0  0  0  0  0  0
   10.8560    1.9220   -1.7036 H   0  0  0  0  0  0  0  0  0  0  0  0
   13.1785    1.8757   -2.5711 H   0  0  0  0  0  0  0  0  0  0  0  0
   17.3630    2.0458   -4.1000 H   0  0  0  0  0  0  0  0  0  0  0  0
   19.6874    1.9879   -4.9711 H   0  0  0  0  0  0  0  0  0  0  0  0
   21.3332   -1.2065   -5.9458 H   0  0  0  0  0  0  0  0  0  0  0  0
   24.9838    0.9196   -4.7456 H   0  0  0  0  0  0  0  0  0  0  0  0
   24.0867    2.4026   -5.1854 H   0  0  0  0  0  0  0  0  0  0  0  0
   25.7446    2.1408   -5.7970 H   0  0  0  0  0  0  0  0  0  0  0  0
   25.4326   -0.8649   -6.4822 H   0  0  0  0  0  0  0  0  0  0  0  0
   26.1768    0.3290   -7.5825 H   0  0  0  0  0  0  0  0  0  0  0  0
   24.8119   -0.6764   -8.1444 H   0  0  0  0  0  0  0  0  0  0  0  0
   23.1919    2.6748   -7.5837 H   0  0  0  0  0  0  0  0  0  0  0  0
   23.4780    1.3771   -8.7802 H   0  0  0  0  0  0  0  0  0  0  0  0
   24.8259    2.4198   -8.2591 H   0  0  0  0  0  0  0  0  0  0  0  0
   19.4146   -2.3029   -5.3562 H   0  0  0  0  0  0  0  0  0  0  0  0
   17.0899   -2.2402   -4.4841 H   0  0  0  0  0  0  0  0  0  0  0  0
   11.9391   -5.8172   -2.9523 H   0  0  0  0  0  0  0  0  0  0  0  0
   13.6458   -5.3646   -2.5835 H   0  0  0  0  0  0  0  0  0  0  0  0
   13.0244   -5.1838   -4.2462 H   0  0  0  0  0  0  0  0  0  0  0  0
   10.6406   -2.3658   -2.0945 H   0  0  0  0  0  0  0  0  0  0  0  0
    5.4341   -5.9493   -0.5358 H   0  0  0  0  0  0  0  0  0  0  0  0
    7.1427   -5.5016   -0.1703 H   0  0  0  0  0  0  0  0  0  0  0  0
    6.5203   -5.3248   -1.8333 H   0  0  0  0  0  0  0  0  0  0  0  0
    4.1612   -2.4877    0.3032 H   0  0  0  0  0  0  0  0  0  0  0  0
  1  2  3  0
  1 41  1  0
  2  3  1  0
  3  4  2  0
  3 40  1  0
  4  5  1  0
  4 42  1  0
  5  6  2  0
  5 43  1  0
  6  7  1  0
  6 35  1  0
  7  8  3  0
  8  9  1  0
  9 10  2  0
  9 34  1  0
 10 11  1  0
 10 44  1  0
 11 12  2  0
 11 45  1  0
 12 13  1  0
 12 29  1  0
 13 14  3  0
 14 15  1  0
 15 16  2  0
 15 28  1  0
 16 17  1  0
 16 46  1  0
 17 18  2  0
 17 47  1  0
 18 19  1  0
 18 27  1  0
 19 20  1  0
 19 48  1  0
 20 21  2  0
 20 22  1  0
 23 22  1  1
 23 24  1  0
 23 25  1  0
 23 26  1  0
 24 49  1  0
 24 50  1  0
 24 51  1  0
 25 52  1  0
 25 53  1  0
 25 54  1  0
 26 55  1  0
 26 56  1  0
 26 57  1  0
 27 28  2  0
 27 58  1  0
 28 59  1  0
 29 30  1  0
 29 34  2  0
 30 31  2  0
 30 32  1  0
 32 33  1  0
 33 60  1  0
 33 61  1  0
 33 62  1  0
 34 63  1  0
 35 36  1  0
 35 40  2  0
 36 37  2  0
 36 38  1  0
 38 39  1  0
 39 64  1  0
 39 65  1  0
 39 66  1  0
 40 67  1  0
M  END

