
     RDKit          3D

 37 37  0  0  0  0  0  0  0  0999 V2000
    4.7821   -0.7443   -4.0393 C   0  0  0  0  0  0  0  0  0  0  0  0
    5.0314   -0.0077   -2.7227 C   0  0  0  0  0  0  0  0  0  0  0  0
    3.7576    0.5464   -2.0797 C   0  0  0  0  0  0  0  0  0  0  0  0
    4.0048    1.3428   -0.7900 C   0  0  0  0  0  0  0  0  0  0  0  0
    4.8195    2.5371   -0.9949 N   0  0  0  0  0  0  0  0  0  0  0  0
    4.1212    3.6929   -1.5411 C   0  0  0  0  0  0  0  0  0  0  0  0
    3.3569    4.5256   -0.4883 C   0  0  2  0  0  0  0  0  0  0  0  0
    2.6966    5.7550   -1.1154 C   0  0  0  0  0  0  0  0  0  0  0  0
    4.3119    4.9013    0.6550 C   0  0  0  0  0  0  0  0  0  0  0  0
    5.0382    3.6829    1.2372 C   0  0  2  0  0  0  0  0  0  0  0  0
    6.0148    4.1126    2.2305 N   0  0  0  0  0  0  0  0  0  0  0  0
    6.5073    3.0776    3.1214 C   0  0  0  0  0  0  0  0  0  0  0  0
    5.7207    2.9128    0.0839 C   0  0  0  0  0  0  0  0  0  0  0  0
    5.7193   -1.1324   -4.4700 H   0  0  0  0  0  0  0  0  0  0  0  0
    4.3236   -0.0787   -4.7902 H   0  0  0  0  0  0  0  0  0  0  0  0
    4.1006   -1.6012   -3.9020 H   0  0  0  0  0  0  0  0  0  0  0  0
    5.7330    0.8277   -2.8818 H   0  0  0  0  0  0  0  0  0  0  0  0
    5.5288   -0.6885   -2.0069 H   0  0  0  0  0  0  0  0  0  0  0  0
    3.0636   -0.2815   -1.8446 H   0  0  0  0  0  0  0  0  0  0  0  0
    3.2234    1.1812   -2.8104 H   0  0  0  0  0  0  0  0  0  0  0  0
    4.5397    0.6928   -0.0773 H   0  0  0  0  0  0  0  0  0  0  0  0
    3.0243    1.5665   -0.3156 H   0  0  0  0  0  0  0  0  0  0  0  0
    3.4313    3.3616   -2.3339 H   0  0  0  0  0  0  0  0  0  0  0  0
    4.8639    4.3519   -2.0318 H   0  0  0  0  0  0  0  0  0  0  0  0
    2.5586    3.8857   -0.0675 H   0  0  0  0  0  0  0  0  0  0  0  0
    3.4507    6.4231   -1.5660 H   0  0  0  0  0  0  0  0  0  0  0  0
    2.1414    6.3411   -0.3649 H   0  0  0  0  0  0  0  0  0  0  0  0
    1.9868    5.4708   -1.9098 H   0  0  0  0  0  0  0  0  0  0  0  0
    3.7591    5.4294    1.4544 H   0  0  0  0  0  0  0  0  0  0  0  0
    5.0761    5.6086    0.2803 H   0  0  0  0  0  0  0  0  0  0  0  0
    4.2718    3.0086    1.6890 H   0  0  0  0  0  0  0  0  0  0  0  0
    5.6223    4.8751    2.7804 H   0  0  0  0  0  0  0  0  0  0  0  0
    7.1240    2.3474    2.5726 H   0  0  0  0  0  0  0  0  0  0  0  0
    5.7085    2.5027    3.6436 H   0  0  0  0  0  0  0  0  0  0  0  0
    7.1561    3.5271    3.8895 H   0  0  0  0  0  0  0  0  0  0  0  0
    6.2188    2.0057    0.4598 H   0  0  0  0  0  0  0  0  0  0  0  0
    6.5157    3.5688   -0.3178 H   0  0  0  0  0  0  0  0  0  0  0  0
  1  2  1  0
  1 14  1  0
  1 15  1  0
  1 16  1  0
  2  3  1  0
  2 17  1  0
  2 18  1  0
  3  4  1  0
  3 19  1  0
  3 20  1  0
  4  5  1  0
  4 21  1  0
  4 22  1  0
  5  6  1  0
  5 13  1  0
  6  7  1  0
  6 23  1  0
  6 24  1  0
  7  8  1  0
  7  9  1  0
  7 25  1  1
  8 26  1  0
  8 27  1  0
  8 28  1  0
  9 10  1  0
  9 29  1  0
  9 30  1  0
 10 11  1  0
 10 13  1  0
 10 31  1  1
 11 12  1  0
 11 32  1  0
 12 33  1  0
 12 34  1  0
 12 35  1  0
 13 36  1  0
 13 37  1  0
M  END

