
     RDKit          3D

 39 42  0  0  0  0  0  0  0  0999 V2000
    2.4218    0.2908    1.3753 C   0  0  0  0  0  0  0  0  0  0  0  0
    2.3970    0.2559   -0.1503 C   0  0  0  0  0  0  0  0  0  0  0  0
    2.9882    1.4542   -0.7788 N   0  0  0  0  0  0  0  0  0  0  0  0
    2.0808    2.4989   -1.0735 C   0  0  0  0  0  0  0  0  0  0  0  0
    0.9348    2.4077   -0.6959 O   0  0  0  0  0  0  0  0  0  0  0  0
    2.5855    3.6851   -1.8917 C   0  0  0  0  0  0  0  0  0  0  0  0
    1.2460    4.7578   -2.4855 S   0  0  0  0  0  0  0  0  0  0  0  0
    0.5528    3.7413   -3.7521 C   0  0  0  0  0  0  0  0  0  0  0  0
    1.0831    2.5562   -4.0300 N   0  0  0  0  0  0  0  0  0  0  0  0
    0.5295    1.8203   -5.0122 C   0  0  0  0  0  0  0  0  0  0  0  0
   -0.5107    2.1386   -5.7628 N   0  0  0  0  0  0  0  0  0  0  0  0
   -1.0672    3.3385   -5.4992 C   0  0  0  0  0  0  0  0  0  0  0  0
   -2.2039    3.9156   -6.1684 C   0  0  0  0  0  0  0  0  0  0  0  0
   -2.5240    5.1421   -5.6672 C   0  0  0  0  0  0  0  0  0  0  0  0
   -1.4827    5.6690   -4.3681 S   0  0  0  0  0  0  0  0  0  0  0  0
   -0.5644    4.1914   -4.4859 C   0  0  0  0  0  0  0  0  0  0  0  0
    4.3631    1.5164   -0.9500 C   0  0  0  0  0  0  0  0  0  0  0  0
    5.0473    2.5845   -1.2016 N   0  0  0  0  0  0  0  0  0  0  0  0
    6.3944    2.3174   -1.3423 C   0  0  0  0  0  0  0  0  0  0  0  0
    7.3904    3.2662   -1.6266 C   0  0  0  0  0  0  0  0  0  0  0  0
    8.7163    2.8500   -1.7232 C   0  0  0  0  0  0  0  0  0  0  0  0
    9.0670    1.5005   -1.5394 C   0  0  0  0  0  0  0  0  0  0  0  0
    8.0937    0.5408   -1.2556 C   0  0  0  0  0  0  0  0  0  0  0  0
    6.7635    0.9597   -1.1630 C   0  0  0  0  0  0  0  0  0  0  0  0
    5.3296    0.0100   -0.8255 S   0  0  0  0  0  0  0  0  0  0  0  0
    1.9724   -0.6309    1.7780 H   0  0  0  0  0  0  0  0  0  0  0  0
    1.8387    1.1454    1.7487 H   0  0  0  0  0  0  0  0  0  0  0  0
    3.4497    0.3639    1.7636 H   0  0  0  0  0  0  0  0  0  0  0  0
    1.3629    0.1960   -0.5089 H   0  0  0  0  0  0  0  0  0  0  0  0
    2.9291   -0.6266   -0.5386 H   0  0  0  0  0  0  0  0  0  0  0  0
    3.1875    3.3436   -2.7406 H   0  0  0  0  0  0  0  0  0  0  0  0
    3.2363    4.3225   -1.2786 H   0  0  0  0  0  0  0  0  0  0  0  0
    1.0031    0.8496   -5.2027 H   0  0  0  0  0  0  0  0  0  0  0  0
   -2.7339    3.4147   -6.9781 H   0  0  0  0  0  0  0  0  0  0  0  0
   -3.3348    5.7971   -5.9856 H   0  0  0  0  0  0  0  0  0  0  0  0
    7.1075    4.3113   -1.7661 H   0  0  0  0  0  0  0  0  0  0  0  0
    9.4963    3.5826   -1.9446 H   0  0  0  0  0  0  0  0  0  0  0  0
   10.1134    1.1965   -1.6194 H   0  0  0  0  0  0  0  0  0  0  0  0
    8.3673   -0.5068   -1.1133 H   0  0  0  0  0  0  0  0  0  0  0  0
  1  2  1  0
  1 26  1  0
  1 27  1  0
  1 28  1  0
  2  3  1  0
  2 29  1  0
  2 30  1  0
  3  4  1  0
  3 17  1  0
  4  5  2  0
  4  6  1  0
  6  7  1  0
  6 31  1  0
  6 32  1  0
  7  8  1  0
  8  9  2  0
  8 16  1  0
  9 10  1  0
 10 11  2  0
 10 33  1  0
 11 12  1  0
 12 13  1  0
 12 16  2  0
 13 14  2  0
 13 34  1  0
 14 15  1  0
 14 35  1  0
 15 16  1  0
 17 18  2  0
 17 25  1  0
 18 19  1  0
 19 20  2  0
 19 24  1  0
 20 21  1  0
 20 36  1  0
 21 22  2  0
 21 37  1  0
 22 23  1  0
 22 38  1  0
 23 24  2  0
 23 39  1  0
 24 25  1  0
M  END

