
     RDKit          3D

 66 69  0  0  0  0  0  0  0  0999 V2000
    1.8026   -5.2442   -5.6550 C   0  0  0  0  0  0  0  0  0  0  0  0
    1.5482   -4.0989   -4.6735 C   0  0  0  0  0  0  0  0  0  0  0  0
    2.0436   -2.7083   -5.1265 C   0  0  2  0  0  0  0  0  0  0  0  0
    1.8468   -2.0168   -4.2930 H   0  0  0  0  0  0  0  0  0  0  0  0
    1.3467   -2.1820   -6.3834 C   0  0  0  0  0  0  0  0  0  0  0  0
    3.4940   -2.6770   -5.3148 N   0  0  0  0  0  0  0  0  0  0  0  0
    4.3677   -2.3719   -4.3094 C   0  0  0  0  0  0  0  0  0  0  0  0
    3.9867   -2.1143   -3.1741 O   0  0  0  0  0  0  0  0  0  0  0  0
    5.8417   -2.3281   -4.7263 C   0  0  1  0  0  0  0  0  0  0  0  0
    6.2812   -0.8675   -5.0093 C   0  0  0  0  0  0  0  0  0  0  0  0
    6.5017   -0.0645   -3.7153 C   0  0  0  0  0  0  0  0  0  0  0  0
    7.4382   -0.7031   -2.7887 N   0  0  0  0  0  0  0  0  0  0  0  0
    8.8531   -0.5987   -3.1517 C   0  0  0  0  0  0  0  0  0  0  0  0
    9.3649    0.8125   -3.1847 C   0  0  0  0  0  0  0  0  0  0  0  0
    9.8901    1.5054   -4.2543 C   0  0  0  0  0  0  0  0  0  0  0  0
   10.2591    2.8116   -3.7884 C   0  0  0  0  0  0  0  0  0  0  0  0
   10.8283    3.9503   -4.3906 C   0  0  0  0  0  0  0  0  0  0  0  0
   11.0556    5.0838   -3.6163 C   0  0  0  0  0  0  0  0  0  0  0  0
   10.7269    5.1030   -2.2432 C   0  0  0  0  0  0  0  0  0  0  0  0
   10.1638    3.9925   -1.6185 C   0  0  0  0  0  0  0  0  0  0  0  0
    9.9284    2.8522   -2.4017 C   0  0  0  0  0  0  0  0  0  0  0  0
    9.3811    1.6284   -2.0563 N   0  0  0  0  0  0  0  0  0  0  0  0
    8.9318    1.2519   -0.7299 C   0  0  0  0  0  0  0  0  0  0  0  0
    9.9927    0.6477    0.1806 C   0  0  0  0  0  0  0  0  0  0  0  0
    9.6061    0.1833    1.4496 C   0  0  0  0  0  0  0  0  0  0  0  0
   10.5502   -0.3722    2.3110 C   0  0  0  0  0  0  0  0  0  0  0  0
   11.8903   -0.4737    1.9194 C   0  0  0  0  0  0  0  0  0  0  0  0
   12.2999   -0.0194    0.6598 C   0  0  0  0  0  0  0  0  0  0  0  0
   13.7409   -0.1130    0.2185 C   0  0  0  0  0  0  0  0  0  0  0  0
   11.3340    0.5390   -0.1975 C   0  0  0  0  0  0  0  0  0  0  0  0
    6.9949   -2.0558   -2.4457 C   0  0  0  0  0  0  0  0  0  0  0  0
    6.7706   -2.9663   -3.6686 C   0  0  0  0  0  0  0  0  0  0  0  0
    1.4689   -6.2045   -5.2315 H   0  0  0  0  0  0  0  0  0  0  0  0
    2.8765   -5.3460   -5.8835 H   0  0  0  0  0  0  0  0  0  0  0  0
    1.2671   -5.1060   -6.6085 H   0  0  0  0  0  0  0  0  0  0  0  0
    2.0344   -4.3213   -3.7094 H   0  0  0  0  0  0  0  0  0  0  0  0
    0.4672   -4.0221   -4.4609 H   0  0  0  0  0  0  0  0  0  0  0  0
    1.6639   -1.1509   -6.6037 H   0  0  0  0  0  0  0  0  0  0  0  0
    0.2539   -2.1822   -6.2491 H   0  0  0  0  0  0  0  0  0  0  0  0
    1.5700   -2.8011   -7.2689 H   0  0  0  0  0  0  0  0  0  0  0  0
    3.8676   -2.9183   -6.2248 H   0  0  0  0  0  0  0  0  0  0  0  0
    5.9397   -2.9022   -5.6642 H   0  0  0  0  0  0  0  0  0  0  0  0
    5.5343   -0.3606   -5.6437 H   0  0  0  0  0  0  0  0  0  0  0  0
    7.2164   -0.8941   -5.5949 H   0  0  0  0  0  0  0  0  0  0  0  0
    5.5387    0.0523   -3.1926 H   0  0  0  0  0  0  0  0  0  0  0  0
    6.8684    0.9445   -3.9591 H   0  0  0  0  0  0  0  0  0  0  0  0
    9.1054   -1.0520   -4.1335 H   0  0  0  0  0  0  0  0  0  0  0  0
    9.4186   -1.1752   -2.3985 H   0  0  0  0  0  0  0  0  0  0  0  0
    9.9960    1.1146   -5.2649 H   0  0  0  0  0  0  0  0  0  0  0  0
   11.0876    3.9413   -5.4528 H   0  0  0  0  0  0  0  0  0  0  0  0
   11.4974    5.9732   -4.0729 H   0  0  0  0  0  0  0  0  0  0  0  0
   10.9217    6.0049   -1.6572 H   0  0  0  0  0  0  0  0  0  0  0  0
    9.9256    4.0128   -0.5530 H   0  0  0  0  0  0  0  0  0  0  0  0
    8.0987    0.5437   -0.8591 H   0  0  0  0  0  0  0  0  0  0  0  0
    8.5055    2.1480   -0.2485 H   0  0  0  0  0  0  0  0  0  0  0  0
    8.5593    0.2571    1.7598 H   0  0  0  0  0  0  0  0  0  0  0  0
   10.2431   -0.7327    3.2965 H   0  0  0  0  0  0  0  0  0  0  0  0
   12.6244   -0.9115    2.6018 H   0  0  0  0  0  0  0  0  0  0  0  0
   14.3680   -0.5981    0.9811 H   0  0  0  0  0  0  0  0  0  0  0  0
   14.1632    0.8866    0.0206 H   0  0  0  0  0  0  0  0  0  0  0  0
   13.8375   -0.6903   -0.7161 H   0  0  0  0  0  0  0  0  0  0  0  0
   11.6417    0.8995   -1.1825 H   0  0  0  0  0  0  0  0  0  0  0  0
    6.0470   -1.9745   -1.8944 H   0  0  0  0  0  0  0  0  0  0  0  0
    7.7379   -2.5113   -1.7704 H   0  0  0  0  0  0  0  0  0  0  0  0
    6.3630   -3.9355   -3.3363 H   0  0  0  0  0  0  0  0  0  0  0  0
    7.7382   -3.1850   -4.1535 H   0  0  0  0  0  0  0  0  0  0  0  0
  1  2  1  0
  1 33  1  0
  1 34  1  0
  1 35  1  0
  2  3  1  0
  2 36  1  0
  2 37  1  0
  3  4  1  1
  3  5  1  0
  3  6  1  0
  5 38  1  0
  5 39  1  0
  5 40  1  0
  6  7  1  0
  6 41  1  0
  7  8  2  0
  7  9  1  0
  9 10  1  0
  9 32  1  0
  9 42  1  6
 10 11  1  0
 10 43  1  0
 10 44  1  0
 11 12  1  0
 11 45  1  0
 11 46  1  0
 12 13  1  0
 12 31  1  0
 13 14  1  0
 13 47  1  0
 13 48  1  0
 14 15  2  0
 14 22  1  0
 15 16  1  0
 15 49  1  0
 16 17  2  0
 16 21  1  0
 17 18  1  0
 17 50  1  0
 18 19  2  0
 18 51  1  0
 19 20  1  0
 19 52  1  0
 20 21  2  0
 20 53  1  0
 21 22  1  0
 22 23  1  0
 23 24  1  0
 23 54  1  0
 23 55  1  0
 24 25  2  0
 24 30  1  0
 25 26  1  0
 25 56  1  0
 26 27  2  0
 26 57  1  0
 27 28  1  0
 27 58  1  0
 28 29  1  0
 28 30  2  0
 29 59  1  0
 29 60  1  0
 29 61  1  0
 30 62  1  0
 31 32  1  0
 31 63  1  0
 31 64  1  0
 32 65  1  0
 32 66  1  0
M  END

