
     RDKit          3D

 48 50  0  0  0  0  0  0  0  0999 V2000
    1.0794   -0.1856   -0.9869 C   0  0  0  0  0  0  0  0  0  0  0  0
    2.4986   -0.1013   -0.5271 C   0  0  0  0  0  0  0  0  0  0  0  0
    3.2308    1.0266   -0.2311 C   0  0  0  0  0  0  0  0  0  0  0  0
    2.8925    2.4652   -0.2685 C   0  0  0  0  0  0  0  0  0  0  0  0
    1.7884    2.8634   -0.6026 O   0  0  0  0  0  0  0  0  0  0  0  0
    3.9382    3.2901    0.1075 N   0  0  0  0  0  0  0  0  0  0  0  0
    3.9643    4.6846    0.1847 C   0  0  0  0  0  0  0  0  0  0  0  0
    2.8729    5.5156   -0.1244 C   0  0  0  0  0  0  0  0  0  0  0  0
    3.0438    6.8967   -0.0016 C   0  0  0  0  0  0  0  0  0  0  0  0
    4.1725    7.4944    0.3899 N   0  0  0  0  0  0  0  0  0  0  0  0
    5.2036    6.6966    0.6813 C   0  0  0  0  0  0  0  0  0  0  0  0
    5.1576    5.3064    0.5980 C   0  0  0  0  0  0  0  0  0  0  0  0
    4.5143    0.6831    0.1630 O   0  0  0  0  0  0  0  0  0  0  0  0
    4.6006   -0.6571    0.1182 C   0  0  0  0  0  0  0  0  0  0  0  0
    3.4070   -1.2037   -0.2927 C   0  0  0  0  0  0  0  0  0  0  0  0
    3.2327   -2.6504   -0.3852 C   0  0  0  0  0  0  0  0  0  0  0  0
    2.0860   -3.1056   -0.7602 N   0  0  0  0  0  0  0  0  0  0  0  0
    1.8852   -4.4435   -0.8051 N   0  0  0  0  0  0  0  0  0  0  0  0
    0.6816   -4.9369   -1.2391 C   0  0  0  0  0  0  0  0  0  0  0  0
   -0.2652   -4.3016   -1.6264 O   0  0  0  0  0  0  0  0  0  0  0  0
    0.6220   -6.4904   -1.2167 C   0  0  1  0  0  0  0  0  0  0  0  0
    0.3026   -6.9175   -2.4510 F   0  0  0  0  0  0  0  0  0  0  0  0
    1.8353   -7.0299   -0.8877 F   0  0  0  0  0  0  0  0  0  0  0  0
   -0.4294   -7.0956   -0.2417 C   0  0  1  0  0  0  0  0  0  0  0  0
   -1.6472   -6.6408   -0.5682 F   0  0  0  0  0  0  0  0  0  0  0  0
   -0.4074   -8.4355   -0.3912 F   0  0  0  0  0  0  0  0  0  0  0  0
   -0.1931   -6.7931    1.2623 C   0  0  1  0  0  0  0  0  0  0  0  0
    0.9634   -7.3155    1.6756 F   0  0  0  0  0  0  0  0  0  0  0  0
   -0.1552   -5.4711    1.4665 F   0  0  0  0  0  0  0  0  0  0  0  0
   -1.1809   -7.3111    1.9833 F   0  0  0  0  0  0  0  0  0  0  0  0
    4.4349   -3.4876    0.0398 C   0  0  0  0  0  0  0  0  0  0  0  0
    5.7860   -2.7783   -0.1735 C   0  0  0  0  0  0  0  0  0  0  0  0
    5.8447   -1.3865    0.4794 C   0  0  0  0  0  0  0  0  0  0  0  0
    0.6424    0.8147   -1.0816 H   0  0  0  0  0  0  0  0  0  0  0  0
    0.4845   -0.7901   -0.2846 H   0  0  0  0  0  0  0  0  0  0  0  0
    1.0186   -0.7158   -1.9499 H   0  0  0  0  0  0  0  0  0  0  0  0
    4.8000    2.8187    0.3603 H   0  0  0  0  0  0  0  0  0  0  0  0
    1.9277    5.0877   -0.4486 H   0  0  0  0  0  0  0  0  0  0  0  0
    2.2010    7.5570   -0.2394 H   0  0  0  0  0  0  0  0  0  0  0  0
    6.1304    7.1873    1.0027 H   0  0  0  0  0  0  0  0  0  0  0  0
    6.0393    4.7108    0.8515 H   0  0  0  0  0  0  0  0  0  0  0  0
    2.6111   -5.1036   -0.5317 H   0  0  0  0  0  0  0  0  0  0  0  0
    4.4554   -4.4424   -0.5111 H   0  0  0  0  0  0  0  0  0  0  0  0
    4.3144   -3.7487    1.1089 H   0  0  0  0  0  0  0  0  0  0  0  0
    5.9607   -2.6684   -1.2568 H   0  0  0  0  0  0  0  0  0  0  0  0
    6.5962   -3.4126    0.2168 H   0  0  0  0  0  0  0  0  0  0  0  0
    6.7342   -0.8294    0.1430 H   0  0  0  0  0  0  0  0  0  0  0  0
    5.9298   -1.4748    1.5794 H   0  0  0  0  0  0  0  0  0  0  0  0
  1  2  1  0
  1 34  1  0
  1 35  1  0
  1 36  1  0
  2  3  2  0
  2 15  1  0
  3  4  1  0
  3 13  1  0
  4  5  2  0
  4  6  1  0
  6  7  1  0
  6 37  1  0
  7  8  2  0
  7 12  1  0
  8  9  1  0
  8 38  1  0
  9 10  2  0
  9 39  1  0
 10 11  1  0
 11 12  2  0
 11 40  1  0
 12 41  1  0
 13 14  1  0
 14 15  2  0
 14 33  1  0
 15 16  1  0
 16 17  2  0
 16 31  1  0
 17 18  1  0
 18 19  1  0
 18 42  1  0
 19 20  2  0
 19 21  1  0
 21 22  1  6
 21 23  1  0
 21 24  1  0
 24 25  1  6
 24 26  1  0
 24 27  1  0
 27 28  1  1
 27 29  1  0
 27 30  1  0
 31 32  1  0
 31 43  1  0
 31 44  1  0
 32 33  1  0
 32 45  1  0
 32 46  1  0
 33 47  1  0
 33 48  1  0
M  END

