
     RDKit          3D

 53 55  0  0  0  0  0  0  0  0999 V2000
    4.4914    3.9625   -2.1452 C   0  0  0  0  0  0  0  0  0  0  0  0
    5.3225    2.8159   -2.0121 O   0  0  0  0  0  0  0  0  0  0  0  0
    4.8509    1.6807   -2.5919 C   0  0  0  0  0  0  0  0  0  0  0  0
    3.7982    1.6132   -3.1939 O   0  0  0  0  0  0  0  0  0  0  0  0
    5.7127    0.6455   -2.4071 N   0  0  0  0  0  0  0  0  0  0  0  0
    6.9782    0.7086   -1.6743 C   0  0  0  0  0  0  0  0  0  0  0  0
    7.6391   -0.6428   -1.9836 C   0  0  1  0  0  0  0  0  0  0  0  0
    8.1912   -0.5887   -2.9359 H   0  0  0  0  0  0  0  0  0  0  0  0
    8.5641   -1.1428   -0.8722 C   0  0  0  0  0  0  0  0  0  0  0  0
    9.8472   -1.8172   -1.3013 C   0  0  0  0  0  0  0  0  0  0  0  0
    8.2520   -1.0244    0.2932 O   0  0  0  0  0  0  0  0  0  0  0  0
    6.4107   -1.5909   -2.1757 C   0  0  2  0  0  0  0  0  0  0  0  0
    6.0103   -1.7727   -1.1646 H   0  0  0  0  0  0  0  0  0  0  0  0
    6.6996   -2.9289   -2.8236 C   0  0  0  0  0  0  0  0  0  0  0  0
    7.1656   -3.0332   -4.1358 C   0  0  0  0  0  0  0  0  0  0  0  0
    7.4337   -4.2869   -4.7052 C   0  0  0  0  0  0  0  0  0  0  0  0
    7.2439   -5.4613   -3.9740 C   0  0  0  0  0  0  0  0  0  0  0  0
    7.4759   -6.7131   -4.4371 O   0  0  0  0  0  0  0  0  0  0  0  0
    7.9371   -6.8788   -5.7565 C   0  0  0  0  0  0  0  0  0  0  0  0
    6.7724   -5.3730   -2.6339 C   0  0  0  0  0  0  0  0  0  0  0  0
    6.6253   -6.5551   -1.9916 O   0  0  0  0  0  0  0  0  0  0  0  0
    6.2046   -6.6148   -0.6362 C   0  0  1  0  0  0  0  0  0  0  0  0
    4.6866   -6.5092   -0.4241 C   0  0  0  0  0  0  0  0  0  0  0  0
    4.5017   -7.1001    0.9796 C   0  0  0  0  0  0  0  0  0  0  0  0
    5.5226   -8.2677    1.0569 C   0  0  0  0  0  0  0  0  0  0  0  0
    6.5577   -7.9990   -0.0668 C   0  0  0  0  0  0  0  0  0  0  0  0
    6.5070   -4.1153   -2.0872 C   0  0  0  0  0  0  0  0  0  0  0  0
    5.4109   -0.6859   -2.9188 C   0  0  0  0  0  0  0  0  0  0  0  0
    5.0105    4.7783   -1.6254 H   0  0  0  0  0  0  0  0  0  0  0  0
    3.5037    3.7925   -1.6895 H   0  0  0  0  0  0  0  0  0  0  0  0
    4.3407    4.2243   -3.2041 H   0  0  0  0  0  0  0  0  0  0  0  0
    6.8145    0.8073   -0.5881 H   0  0  0  0  0  0  0  0  0  0  0  0
    7.5867    1.5640   -2.0047 H   0  0  0  0  0  0  0  0  0  0  0  0
   10.3860   -2.1997   -0.4245 H   0  0  0  0  0  0  0  0  0  0  0  0
   10.4840   -1.0998   -1.8468 H   0  0  0  0  0  0  0  0  0  0  0  0
    9.6234   -2.6394   -2.0013 H   0  0  0  0  0  0  0  0  0  0  0  0
    7.3238   -2.1383   -4.7428 H   0  0  0  0  0  0  0  0  0  0  0  0
    7.7929   -4.3363   -5.7332 H   0  0  0  0  0  0  0  0  0  0  0  0
    8.0504   -7.9598   -5.9152 H   0  0  0  0  0  0  0  0  0  0  0  0
    8.9159   -6.3902   -5.9171 H   0  0  0  0  0  0  0  0  0  0  0  0
    7.2194   -6.4824   -6.4982 H   0  0  0  0  0  0  0  0  0  0  0  0
    6.7198   -5.8268   -0.0556 H   0  0  0  0  0  0  0  0  0  0  0  0
    4.1935   -7.1372   -1.1862 H   0  0  0  0  0  0  0  0  0  0  0  0
    4.2900   -5.4881   -0.5279 H   0  0  0  0  0  0  0  0  0  0  0  0
    3.4669   -7.4201    1.1745 H   0  0  0  0  0  0  0  0  0  0  0  0
    4.7436   -6.3348    1.7364 H   0  0  0  0  0  0  0  0  0  0  0  0
    5.0236   -9.2359    0.8962 H   0  0  0  0  0  0  0  0  0  0  0  0
    5.9930   -8.3224    2.0504 H   0  0  0  0  0  0  0  0  0  0  0  0
    6.4551   -8.7249   -0.8883 H   0  0  0  0  0  0  0  0  0  0  0  0
    7.6014   -8.0477    0.2775 H   0  0  0  0  0  0  0  0  0  0  0  0
    6.1345   -4.0400   -1.0655 H   0  0  0  0  0  0  0  0  0  0  0  0
    4.3641   -0.9596   -2.7186 H   0  0  0  0  0  0  0  0  0  0  0  0
    5.5533   -0.7359   -4.0135 H   0  0  0  0  0  0  0  0  0  0  0  0
  1  2  1  0
  1 29  1  0
  1 30  1  0
  1 31  1  0
  2  3  1  0
  3  4  2  0
  3  5  1  0
  5  6  1  0
  5 28  1  0
  6  7  1  0
  6 32  1  0
  6 33  1  0
  7  8  1  6
  7  9  1  0
  7 12  1  0
  9 10  1  0
  9 11  2  0
 10 34  1  0
 10 35  1  0
 10 36  1  0
 12 13  1  1
 12 14  1  0
 12 28  1  0
 14 15  2  0
 14 27  1  0
 15 16  1  0
 15 37  1  0
 16 17  2  0
 16 38  1  0
 17 18  1  0
 17 20  1  0
 18 19  1  0
 19 39  1  0
 19 40  1  0
 19 41  1  0
 20 21  1  0
 20 27  2  0
 21 22  1  0
 22 23  1  0
 22 26  1  0
 22 42  1  1
 23 24  1  0
 23 43  1  0
 23 44  1  0
 24 25  1  0
 24 45  1  0
 24 46  1  0
 25 26  1  0
 25 47  1  0
 25 48  1  0
 26 49  1  0
 26 50  1  0
 27 51  1  0
 28 52  1  0
 28 53  1  0
M  END

