
     RDKit          3D

 52 56  0  0  0  0  0  0  0  0999 V2000
    4.6471   -0.5125    2.3088 O   0  0  0  0  0  0  0  0  0  0  0  0
    4.3817    0.4090    1.5466 C   0  0  0  0  0  0  0  0  0  0  0  0
    3.0336    0.4652    0.8008 C   0  0  0  0  0  0  0  0  0  0  0  0
    2.0693    1.4243    1.3576 N   0  0  0  0  0  0  0  0  0  0  0  0
    2.1702    2.7217    0.8889 C   0  0  0  0  0  0  0  0  0  0  0  0
    3.0698    3.0389    0.1167 O   0  0  0  0  0  0  0  0  0  0  0  0
    1.1274    3.7024    1.3273 C   0  0  0  0  0  0  0  0  0  0  0  0
    1.2730    5.0461    1.4354 C   0  0  0  0  0  0  0  0  0  0  0  0
    2.4270    5.9484    1.3019 C   0  0  0  0  0  0  0  0  0  0  0  0
    2.1545    7.3070    1.0383 C   0  0  0  0  0  0  0  0  0  0  0  0
    3.1841    8.2406    0.9234 C   0  0  0  0  0  0  0  0  0  0  0  0
    4.5145    7.8515    1.0949 C   0  0  0  0  0  0  0  0  0  0  0  0
    4.7845    6.5102    1.3849 C   0  0  0  0  0  0  0  0  0  0  0  0
    6.5988    5.9700    1.6589 Br  0  0  0  0  0  0  0  0  0  0  0  0
    3.7702    5.5621    1.4867 C   0  0  0  0  0  0  0  0  0  0  0  0
   -0.5133    3.0180    1.4661 S   0  0  0  0  0  0  0  0  0  0  0  0
   -0.1158    1.6102    2.4705 C   0  0  0  0  0  0  0  0  0  0  0  0
   -1.0598    1.1169    3.3791 C   0  0  0  0  0  0  0  0  0  0  0  0
   -0.7712   -0.0053    4.1565 C   0  0  0  0  0  0  0  0  0  0  0  0
    0.4796   -0.6181    4.0443 C   0  0  0  0  0  0  0  0  0  0  0  0
    1.4316   -0.1293    3.1479 C   0  0  0  0  0  0  0  0  0  0  0  0
    1.1362    0.9768    2.3314 C   0  0  0  0  0  0  0  0  0  0  0  0
    5.2104    1.4503    1.2918 N   0  0  0  0  0  0  0  0  0  0  0  0
    6.5372    1.5643    1.8897 C   0  0  0  0  0  0  0  0  0  0  0  0
    7.6546    1.0469    1.0013 C   0  0  0  0  0  0  0  0  0  0  0  0
    7.9244   -0.3281    0.9422 C   0  0  0  0  0  0  0  0  0  0  0  0
    8.9298   -0.8515    0.1070 C   0  0  0  0  0  0  0  0  0  0  0  0
    9.6433    0.0526   -0.6605 C   0  0  0  0  0  0  0  0  0  0  0  0
    9.3823    1.4237   -0.6085 C   0  0  0  0  0  0  0  0  0  0  0  0
    8.3992    1.9511    0.2094 C   0  0  0  0  0  0  0  0  0  0  0  0
   10.2520    2.0806   -1.4372 O   0  0  0  0  0  0  0  0  0  0  0  0
   10.9495    1.0686   -2.1567 C   0  0  0  0  0  0  0  0  0  0  0  0
   10.6816   -0.1779   -1.5223 O   0  0  0  0  0  0  0  0  0  0  0  0
    2.5947   -0.5374    0.8403 H   0  0  0  0  0  0  0  0  0  0  0  0
    3.2037    0.7453   -0.2476 H   0  0  0  0  0  0  0  0  0  0  0  0
    0.3455    5.5792    1.6735 H   0  0  0  0  0  0  0  0  0  0  0  0
    1.1175    7.6291    0.9147 H   0  0  0  0  0  0  0  0  0  0  0  0
    2.9518    9.2858    0.7055 H   0  0  0  0  0  0  0  0  0  0  0  0
    5.3270    8.5752    1.0149 H   0  0  0  0  0  0  0  0  0  0  0  0
    4.0226    4.5306    1.7153 H   0  0  0  0  0  0  0  0  0  0  0  0
   -2.0215    1.6263    3.4757 H   0  0  0  0  0  0  0  0  0  0  0  0
   -1.5153   -0.3862    4.8597 H   0  0  0  0  0  0  0  0  0  0  0  0
    0.7283   -1.4813    4.6659 H   0  0  0  0  0  0  0  0  0  0  0  0
    2.4147   -0.6005    3.0886 H   0  0  0  0  0  0  0  0  0  0  0  0
    4.8913    2.1479    0.6217 H   0  0  0  0  0  0  0  0  0  0  0  0
    6.5096    0.9941    2.8285 H   0  0  0  0  0  0  0  0  0  0  0  0
    6.7110    2.6229    2.1355 H   0  0  0  0  0  0  0  0  0  0  0  0
    7.3292   -1.0074    1.5568 H   0  0  0  0  0  0  0  0  0  0  0  0
    9.1447   -1.9205    0.0669 H   0  0  0  0  0  0  0  0  0  0  0  0
    8.2122    3.0265    0.2409 H   0  0  0  0  0  0  0  0  0  0  0  0
   12.0323    1.2736   -2.1325 H   0  0  0  0  0  0  0  0  0  0  0  0
   10.5880    1.0395   -3.2045 H   0  0  0  0  0  0  0  0  0  0  0  0
  1  2  2  0
  2  3  1  0
  2 23  1  0
  3  4  1  0
  3 34  1  0
  3 35  1  0
  4  5  1  0
  4 22  1  0
  5  6  2  0
  5  7  1  0
  7  8  2  0
  7 16  1  0
  8  9  1  0
  8 36  1  0
  9 10  2  0
  9 15  1  0
 10 11  1  0
 10 37  1  0
 11 12  2  0
 11 38  1  0
 12 13  1  0
 12 39  1  0
 13 14  1  0
 13 15  2  0
 15 40  1  0
 16 17  1  0
 17 18  2  0
 17 22  1  0
 18 19  1  0
 18 41  1  0
 19 20  2  0
 19 42  1  0
 20 21  1  0
 20 43  1  0
 21 22  2  0
 21 44  1  0
 23 24  1  0
 23 45  1  0
 24 25  1  0
 24 46  1  0
 24 47  1  0
 25 26  2  0
 25 30  1  0
 26 27  1  0
 26 48  1  0
 27 28  2  0
 27 49  1  0
 28 29  1  0
 28 33  1  0
 29 30  2  0
 29 31  1  0
 30 50  1  0
 31 32  1  0
 32 33  1  0
 32 51  1  0
 32 52  1  0
M  END

