
     RDKit          3D

 43 45  0  0  0  0  0  0  0  0999 V2000
    2.4970   -2.4268   -0.1418 C   0  0  0  0  0  0  0  0  0  0  0  0
    3.0436   -1.0388   -0.0308 C   0  0  0  0  0  0  0  0  0  0  0  0
    4.3217   -0.6188    0.2801 C   0  0  0  0  0  0  0  0  0  0  0  0
    4.2923    0.7967    0.1871 C   0  0  0  0  0  0  0  0  0  0  0  0
    5.5198    1.6307    0.4147 C   0  0  0  0  0  0  0  0  0  0  0  0
    6.5953    1.0420    0.4684 O   0  0  0  0  0  0  0  0  0  0  0  0
    5.4384    2.9944    0.5558 N   0  0  0  0  0  0  0  0  0  0  0  0
    6.6703    3.7506    0.7599 C   0  0  0  0  0  0  0  0  0  0  0  0
    6.7085    4.9283   -0.2089 C   0  0  0  0  0  0  0  0  0  0  0  0
    5.5419    5.7228   -0.1198 O   0  0  0  0  0  0  0  0  0  0  0  0
    4.2993    5.0229   -0.2994 C   0  0  2  0  0  0  0  0  0  0  0  0
    4.1360    4.5627   -1.7556 C   0  0  0  0  0  0  0  0  0  0  0  0
    3.2206    6.0394    0.0687 C   0  0  0  0  0  0  0  0  0  0  0  0
    4.2447    3.8243    0.6766 C   0  0  0  0  0  0  0  0  0  0  0  0
    3.0804    1.2210   -0.1682 N   0  0  0  0  0  0  0  0  0  0  0  0
    2.3244    0.1125   -0.2891 N   0  0  0  0  0  0  0  0  0  0  0  0
    0.9709    0.2448   -0.7128 C   0  0  0  0  0  0  0  0  0  0  0  0
    0.6667    1.1306   -1.7566 C   0  0  0  0  0  0  0  0  0  0  0  0
   -0.6561    1.2798   -2.1744 C   0  0  0  0  0  0  0  0  0  0  0  0
   -1.6789    0.5448   -1.5650 C   0  0  0  0  0  0  0  0  0  0  0  0
   -1.3717   -0.3334   -0.5225 C   0  0  0  0  0  0  0  0  0  0  0  0
   -0.0517   -0.4800   -0.0873 C   0  0  0  0  0  0  0  0  0  0  0  0
    3.3300   -3.1365   -0.2425 H   0  0  0  0  0  0  0  0  0  0  0  0
    1.8395   -2.5406   -1.0172 H   0  0  0  0  0  0  0  0  0  0  0  0
    1.9176   -2.7247    0.7479 H   0  0  0  0  0  0  0  0  0  0  0  0
    5.1855   -1.2302    0.5241 H   0  0  0  0  0  0  0  0  0  0  0  0
    7.5222    3.0759    0.6116 H   0  0  0  0  0  0  0  0  0  0  0  0
    6.6985    4.1274    1.8004 H   0  0  0  0  0  0  0  0  0  0  0  0
    6.8616    4.5538   -1.2398 H   0  0  0  0  0  0  0  0  0  0  0  0
    7.5540    5.5914    0.0332 H   0  0  0  0  0  0  0  0  0  0  0  0
    4.2978    5.4127   -2.4361 H   0  0  0  0  0  0  0  0  0  0  0  0
    3.1225    4.1664   -1.9201 H   0  0  0  0  0  0  0  0  0  0  0  0
    4.8453    3.7648   -2.0193 H   0  0  0  0  0  0  0  0  0  0  0  0
    3.2708    6.9030   -0.6115 H   0  0  0  0  0  0  0  0  0  0  0  0
    3.3767    6.4060    1.0946 H   0  0  0  0  0  0  0  0  0  0  0  0
    2.2163    5.5937   -0.0010 H   0  0  0  0  0  0  0  0  0  0  0  0
    3.3488    3.2252    0.4922 H   0  0  0  0  0  0  0  0  0  0  0  0
    4.2000    4.2255    1.7071 H   0  0  0  0  0  0  0  0  0  0  0  0
    1.4747    1.6928   -2.2259 H   0  0  0  0  0  0  0  0  0  0  0  0
   -0.8883    1.9708   -2.9885 H   0  0  0  0  0  0  0  0  0  0  0  0
   -2.7128    0.6607   -1.8985 H   0  0  0  0  0  0  0  0  0  0  0  0
   -2.1657   -0.9000   -0.0300 H   0  0  0  0  0  0  0  0  0  0  0  0
    0.1778   -1.1368    0.7522 H   0  0  0  0  0  0  0  0  0  0  0  0
  1  2  1  0
  1 23  1  0
  1 24  1  0
  1 25  1  0
  2  3  2  0
  2 16  1  0
  3  4  1  0
  3 26  1  0
  4  5  1  0
  4 15  2  0
  5  6  2  0
  5  7  1  0
  7  8  1  0
  7 14  1  0
  8  9  1  0
  8 27  1  0
  8 28  1  0
  9 10  1  0
  9 29  1  0
  9 30  1  0
 10 11  1  0
 11 12  1  6
 11 13  1  0
 11 14  1  0
 12 31  1  0
 12 32  1  0
 12 33  1  0
 13 34  1  0
 13 35  1  0
 13 36  1  0
 14 37  1  0
 14 38  1  0
 15 16  1  0
 16 17  1  0
 17 18  2  0
 17 22  1  0
 18 19  1  0
 18 39  1  0
 19 20  2  0
 19 40  1  0
 20 21  1  0
 20 41  1  0
 21 22  2  0
 21 42  1  0
 22 43  1  0
M  END

