
     RDKit          3D

 39 39  0  0  0  0  0  0  0  0999 V2000
    2.1244    1.5239   -0.0509 C   0  0  0  0  0  0  0  0  0  0  0  0
    3.3607    0.6336    0.0875 C   0  0  0  0  0  0  0  0  0  0  0  0
    3.1916   -0.7300   -0.5930 C   0  0  0  0  0  0  0  0  0  0  0  0
    4.4483   -1.6158   -0.6265 C   0  0  1  0  0  0  0  0  0  0  0  0
    4.9363   -2.0156    0.7704 C   0  0  0  0  0  0  0  0  0  0  0  0
    6.0578   -2.8487    0.6469 O   0  0  0  0  0  0  0  0  0  0  0  0
    6.6248   -3.2362    1.8697 C   0  0  0  0  0  0  0  0  0  0  0  0
    4.2272   -2.8012   -1.4420 N   0  0  0  0  0  0  0  0  0  0  0  0
    5.0812   -3.1545   -2.4555 C   0  0  0  0  0  0  0  0  0  0  0  0
    5.8975   -2.3914   -2.9552 O   0  0  0  0  0  0  0  0  0  0  0  0
    4.9224   -4.4506   -2.9266 N   0  0  0  0  0  0  0  0  0  0  0  0
    5.8295   -4.9258   -3.9553 C   0  0  0  0  0  0  0  0  0  0  0  0
    7.1927   -5.3389   -3.4528 C   0  0  0  0  0  0  0  0  0  0  0  0
    7.5991   -6.5764   -3.3844 N   0  0  0  0  0  0  0  0  0  0  0  0
    8.8725   -6.6714   -2.8760 C   0  0  0  0  0  0  0  0  0  0  0  0
    9.4964   -8.0221   -2.7261 C   0  0  0  0  0  0  0  0  0  0  0  0
   10.5981   -8.2087   -2.2784 O   0  0  0  0  0  0  0  0  0  0  0  0
    8.6980   -9.0186   -3.1428 O   0  0  0  0  0  0  0  0  0  0  0  0
    9.4615   -5.4772   -2.5453 C   0  0  0  0  0  0  0  0  0  0  0  0
    8.3807   -4.1784   -2.8770 S   0  0  0  0  0  0  0  0  0  0  0  0
    2.2695    2.4956    0.4469 H   0  0  0  0  0  0  0  0  0  0  0  0
    1.2358    1.0494    0.3984 H   0  0  0  0  0  0  0  0  0  0  0  0
    1.8912    1.7230   -1.1101 H   0  0  0  0  0  0  0  0  0  0  0  0
    3.5901    0.5007    1.1590 H   0  0  0  0  0  0  0  0  0  0  0  0
    4.2366    1.1471   -0.3484 H   0  0  0  0  0  0  0  0  0  0  0  0
    2.8794   -0.5760   -1.6395 H   0  0  0  0  0  0  0  0  0  0  0  0
    2.3648   -1.2845   -0.1081 H   0  0  0  0  0  0  0  0  0  0  0  0
    5.2622   -1.0719   -1.1295 H   0  0  0  0  0  0  0  0  0  0  0  0
    4.1183   -2.5352    1.3217 H   0  0  0  0  0  0  0  0  0  0  0  0
    5.1838   -1.1074    1.3561 H   0  0  0  0  0  0  0  0  0  0  0  0
    7.4869   -3.8825    1.6500 H   0  0  0  0  0  0  0  0  0  0  0  0
    5.9092   -3.8040    2.4997 H   0  0  0  0  0  0  0  0  0  0  0  0
    6.9779   -2.3661    2.4598 H   0  0  0  0  0  0  0  0  0  0  0  0
    3.5801   -3.4971   -1.0886 H   0  0  0  0  0  0  0  0  0  0  0  0
    4.5474   -5.1488   -2.2935 H   0  0  0  0  0  0  0  0  0  0  0  0
    5.9345   -4.1244   -4.6994 H   0  0  0  0  0  0  0  0  0  0  0  0
    5.3907   -5.8058   -4.4469 H   0  0  0  0  0  0  0  0  0  0  0  0
    7.8691   -8.6090   -3.4595 H   0  0  0  0  0  0  0  0  0  0  0  0
   10.4567   -5.3317   -2.1291 H   0  0  0  0  0  0  0  0  0  0  0  0
  1  2  1  0
  1 21  1  0
  1 22  1  0
  1 23  1  0
  2  3  1  0
  2 24  1  0
  2 25  1  0
  3  4  1  0
  3 26  1  0
  3 27  1  0
  4  5  1  0
  4  8  1  0
  4 28  1  6
  5  6  1  0
  5 29  1  0
  5 30  1  0
  6  7  1  0
  7 31  1  0
  7 32  1  0
  7 33  1  0
  8  9  1  0
  8 34  1  0
  9 10  2  0
  9 11  1  0
 11 12  1  0
 11 35  1  0
 12 13  1  0
 12 36  1  0
 12 37  1  0
 13 14  2  0
 13 20  1  0
 14 15  1  0
 15 16  1  0
 15 19  2  0
 16 17  2  0
 16 18  1  0
 18 38  1  0
 19 20  1  0
 19 39  1  0
M  END

