
     RDKit          3D

 31 31  0  0  0  0  0  0  0  0999 V2000
    2.4239    0.4369   -1.5219 O   0  0  0  0  0  0  0  0  0  0  0  0
    2.3064   -0.0154   -0.3998 C   0  0  0  0  0  0  0  0  0  0  0  0
    3.0035   -1.3115    0.0252 C   0  0  0  0  0  0  0  0  0  0  0  0
    2.3373   -1.9460    1.1568 N   0  0  0  0  0  0  0  0  0  0  0  0
    3.1571   -2.9995    1.6480 O   0  0  0  0  0  0  0  0  0  0  0  0
    3.3777   -2.8400    3.0448 C   0  0  0  0  0  0  0  0  0  0  0  0
    4.3302   -3.9130    3.5142 C   0  0  0  0  0  0  0  0  0  0  0  0
    5.4742   -4.2326    2.7659 C   0  0  0  0  0  0  0  0  0  0  0  0
    6.3719   -5.2001    3.2218 C   0  0  0  0  0  0  0  0  0  0  0  0
    6.1432   -5.8579    4.4352 C   0  0  0  0  0  0  0  0  0  0  0  0
    5.0065   -5.5472    5.1858 C   0  0  0  0  0  0  0  0  0  0  0  0
    4.1031   -4.5855    4.7229 C   0  0  0  0  0  0  0  0  0  0  0  0
    1.6028    0.5943    0.6033 N   0  0  0  0  0  0  0  0  0  0  0  0
    0.8426    1.7935    0.3849 C   0  0  0  0  0  0  0  0  0  0  0  0
   -0.6545    1.5478    0.4795 C   0  0  1  0  0  0  0  0  0  0  0  0
   -1.0802    0.6699   -0.4385 F   0  0  0  0  0  0  0  0  0  0  0  0
   -0.9844    1.0523    1.6913 F   0  0  0  0  0  0  0  0  0  0  0  0
   -1.3336    2.6917    0.3101 F   0  0  0  0  0  0  0  0  0  0  0  0
    4.0249   -1.0457    0.3440 H   0  0  0  0  0  0  0  0  0  0  0  0
    3.0980   -1.9488   -0.8714 H   0  0  0  0  0  0  0  0  0  0  0  0
    1.4905   -2.4181    0.8292 H   0  0  0  0  0  0  0  0  0  0  0  0
    2.4219   -2.9045    3.5966 H   0  0  0  0  0  0  0  0  0  0  0  0
    3.7984   -1.8332    3.2378 H   0  0  0  0  0  0  0  0  0  0  0  0
    5.6500   -3.7263    1.8144 H   0  0  0  0  0  0  0  0  0  0  0  0
    7.2562   -5.4428    2.6266 H   0  0  0  0  0  0  0  0  0  0  0  0
    6.8475   -6.6139    4.7918 H   0  0  0  0  0  0  0  0  0  0  0  0
    4.8156   -6.0612    6.1314 H   0  0  0  0  0  0  0  0  0  0  0  0
    3.2083   -4.3562    5.3090 H   0  0  0  0  0  0  0  0  0  0  0  0
    1.5443    0.0974    1.4889 H   0  0  0  0  0  0  0  0  0  0  0  0
    1.0732    2.1624   -0.6245 H   0  0  0  0  0  0  0  0  0  0  0  0
    1.0929    2.5803    1.1158 H   0  0  0  0  0  0  0  0  0  0  0  0
  1  2  2  0
  2  3  1  0
  2 13  1  0
  3  4  1  0
  3 19  1  0
  3 20  1  0
  4  5  1  0
  4 21  1  0
  5  6  1  0
  6  7  1  0
  6 22  1  0
  6 23  1  0
  7  8  2  0
  7 12  1  0
  8  9  1  0
  8 24  1  0
  9 10  2  0
  9 25  1  0
 10 11  1  0
 10 26  1  0
 11 12  2  0
 11 27  1  0
 12 28  1  0
 13 14  1  0
 13 29  1  0
 14 15  1  0
 14 30  1  0
 14 31  1  0
 15 16  1  6
 15 17  1  0
 15 18  1  0
M  END

