
     RDKit          3D

 37 39  0  0  0  0  0  0  0  0999 V2000
    1.4654   -0.8101    0.4854 C   0  0  0  0  0  0  0  0  0  0  0  0
    2.7029   -0.1188    0.1364 N   0  0  0  0  0  0  0  0  0  0  0  0
    3.5379    0.2319    1.2850 C   0  0  0  0  0  0  0  0  0  0  0  0
    3.1114    1.4898    1.9958 C   0  0  0  0  0  0  0  0  0  0  0  0
    3.4503    1.9100    3.3087 C   0  0  0  0  0  0  0  0  0  0  0  0
    2.9105    3.0888    3.6053 N   0  0  0  0  0  0  0  0  0  0  0  0
    2.2227    3.4466    2.5138 N   0  0  0  0  0  0  0  0  0  0  0  0
    1.4900    4.6961    2.5031 C   0  0  0  0  0  0  0  0  0  0  0  0
    2.3121    2.5207    1.5193 C   0  0  0  0  0  0  0  0  0  0  0  0
    3.2039   -0.3015   -1.1342 C   0  0  0  0  0  0  0  0  0  0  0  0
    2.6099   -1.2288   -1.8711 N   0  0  0  0  0  0  0  0  0  0  0  0
    3.0805   -1.4939   -3.1075 C   0  0  0  0  0  0  0  0  0  0  0  0
    2.3282   -2.5378   -3.8922 C   0  0  0  0  0  0  0  0  0  0  0  0
    0.6748   -1.9448   -4.3478 Cl  0  0  0  0  0  0  0  0  0  0  0  0
    4.1358   -0.9577   -3.6748 N   0  0  0  0  0  0  0  0  0  0  0  0
    4.7508    0.0460   -2.9827 C   0  0  0  0  0  0  0  0  0  0  0  0
    5.8476    0.7111   -3.5924 C   0  0  0  0  0  0  0  0  0  0  0  0
    6.4318    1.8056   -2.9880 C   0  0  0  0  0  0  0  0  0  0  0  0
    5.9298    2.2883   -1.7586 C   0  0  0  0  0  0  0  0  0  0  0  0
    4.8817    1.6415   -1.1271 C   0  0  0  0  0  0  0  0  0  0  0  0
    4.2939    0.4817   -1.6973 C   0  0  0  0  0  0  0  0  0  0  0  0
    1.0293   -0.3187    1.3672 H   0  0  0  0  0  0  0  0  0  0  0  0
    1.6405   -1.8765    0.7176 H   0  0  0  0  0  0  0  0  0  0  0  0
    0.7582   -0.7675   -0.3508 H   0  0  0  0  0  0  0  0  0  0  0  0
    4.5851    0.3019    0.9590 H   0  0  0  0  0  0  0  0  0  0  0  0
    3.5118   -0.6118    2.0007 H   0  0  0  0  0  0  0  0  0  0  0  0
    4.0669    1.3935    4.0454 H   0  0  0  0  0  0  0  0  0  0  0  0
    0.7170    4.6938    3.2866 H   0  0  0  0  0  0  0  0  0  0  0  0
    1.0114    4.8246    1.5235 H   0  0  0  0  0  0  0  0  0  0  0  0
    2.1727    5.5395    2.6860 H   0  0  0  0  0  0  0  0  0  0  0  0
    1.8048    2.6457    0.5651 H   0  0  0  0  0  0  0  0  0  0  0  0
    2.1752   -3.4443   -3.2922 H   0  0  0  0  0  0  0  0  0  0  0  0
    2.8654   -2.7669   -4.8184 H   0  0  0  0  0  0  0  0  0  0  0  0
    6.1821    0.3370   -4.5617 H   0  0  0  0  0  0  0  0  0  0  0  0
    7.2680    2.3173   -3.4717 H   0  0  0  0  0  0  0  0  0  0  0  0
    6.3643    3.1829   -1.3061 H   0  0  0  0  0  0  0  0  0  0  0  0
    4.4935    2.0580   -0.1984 H   0  0  0  0  0  0  0  0  0  0  0  0
  1  2  1  0
  1 22  1  0
  1 23  1  0
  1 24  1  0
  2  3  1  0
  2 10  1  0
  3  4  1  0
  3 25  1  0
  3 26  1  0
  4  5  1  0
  4  9  2  0
  5  6  2  0
  5 27  1  0
  6  7  1  0
  7  8  1  0
  7  9  1  0
  8 28  1  0
  8 29  1  0
  8 30  1  0
  9 31  1  0
 10 11  2  0
 10 21  1  0
 11 12  1  0
 12 13  1  0
 12 15  2  0
 13 14  1  0
 13 32  1  0
 13 33  1  0
 15 16  1  0
 16 17  1  0
 16 21  2  0
 17 18  2  0
 17 34  1  0
 18 19  1  0
 18 35  1  0
 19 20  2  0
 19 36  1  0
 20 21  1  0
 20 37  1  0
M  END

