
     RDKit          3D

 42 45  0  0  0  0  0  0  0  0999 V2000
    2.5334    0.5865   -0.3825 C   0  0  0  0  0  0  0  0  0  0  0  0
    2.6933    1.3749    0.9171 C   0  0  0  0  0  0  0  0  0  0  0  0
    3.7329    0.8168    1.8955 C   0  0  0  0  0  0  0  0  0  0  0  0
    5.1018    0.7477    1.3582 N   0  0  0  0  0  0  0  0  0  0  0  0
    5.8628    1.8831    1.2713 C   0  0  0  0  0  0  0  0  0  0  0  0
    5.3908    3.0367    1.6328 N   0  0  0  0  0  0  0  0  0  0  0  0
    6.1871    4.1449    1.5166 C   0  0  0  0  0  0  0  0  0  0  0  0
    7.3625    4.1127    1.1440 O   0  0  0  0  0  0  0  0  0  0  0  0
    5.5538    5.4452    1.9130 C   0  0  0  0  0  0  0  0  0  0  0  0
    6.4234    6.4649    2.1578 C   0  0  0  0  0  0  0  0  0  0  0  0
    6.0934    7.7000    2.5447 O   0  0  0  0  0  0  0  0  0  0  0  0
    4.7727    8.0162    2.7223 C   0  0  0  0  0  0  0  0  0  0  0  0
    4.4782    9.3172    3.1482 C   0  0  0  0  0  0  0  0  0  0  0  0
    3.1471    9.6744    3.3356 C   0  0  0  0  0  0  0  0  0  0  0  0
    2.1178    8.7454    3.0984 C   0  0  0  0  0  0  0  0  0  0  0  0
    2.4276    7.4596    2.6728 C   0  0  0  0  0  0  0  0  0  0  0  0
    3.7659    7.0710    2.4794 C   0  0  0  0  0  0  0  0  0  0  0  0
    4.0969    5.6909    2.0158 C   0  0  0  0  0  0  0  0  0  0  0  0
    3.2145    4.8939    1.7381 O   0  0  0  0  0  0  0  0  0  0  0  0
    7.4873    1.5244    0.6284 S   0  0  0  0  0  0  0  0  0  0  0  0
    7.0517   -0.1801    0.4827 C   0  0  0  0  0  0  0  0  0  0  0  0
    7.8541   -1.2197    0.0101 C   0  0  0  0  0  0  0  0  0  0  0  0
    7.3172   -2.5088   -0.0174 C   0  0  0  0  0  0  0  0  0  0  0  0
    8.2965   -3.8344   -0.6027 Cl  0  0  0  0  0  0  0  0  0  0  0  0
    6.0069   -2.7587    0.4139 C   0  0  0  0  0  0  0  0  0  0  0  0
    5.2083   -1.7152    0.8834 C   0  0  0  0  0  0  0  0  0  0  0  0
    5.7327   -0.4165    0.9213 C   0  0  0  0  0  0  0  0  0  0  0  0
    1.7656    1.0470   -1.0237 H   0  0  0  0  0  0  0  0  0  0  0  0
    2.2265   -0.4574   -0.1985 H   0  0  0  0  0  0  0  0  0  0  0  0
    3.4693    0.5606   -0.9641 H   0  0  0  0  0  0  0  0  0  0  0  0
    1.7335    1.3959    1.4626 H   0  0  0  0  0  0  0  0  0  0  0  0
    2.9453    2.4276    0.7174 H   0  0  0  0  0  0  0  0  0  0  0  0
    3.4669   -0.1968    2.2286 H   0  0  0  0  0  0  0  0  0  0  0  0
    3.7737    1.4662    2.7807 H   0  0  0  0  0  0  0  0  0  0  0  0
    7.5016    6.3329    2.0516 H   0  0  0  0  0  0  0  0  0  0  0  0
    5.2967   10.0179    3.3222 H   0  0  0  0  0  0  0  0  0  0  0  0
    2.9035   10.6863    3.6687 H   0  0  0  0  0  0  0  0  0  0  0  0
    1.0760    9.0381    3.2479 H   0  0  0  0  0  0  0  0  0  0  0  0
    1.6560    6.7132    2.4735 H   0  0  0  0  0  0  0  0  0  0  0  0
    8.8750   -1.0387   -0.3293 H   0  0  0  0  0  0  0  0  0  0  0  0
    5.6141   -3.7756    0.3767 H   0  0  0  0  0  0  0  0  0  0  0  0
    4.1880   -1.9228    1.2061 H   0  0  0  0  0  0  0  0  0  0  0  0
  1  2  1  0
  1 28  1  0
  1 29  1  0
  1 30  1  0
  2  3  1  0
  2 31  1  0
  2 32  1  0
  3  4  1  0
  3 33  1  0
  3 34  1  0
  4  5  1  0
  4 27  1  0
  5  6  2  0
  5 20  1  0
  6  7  1  0
  7  8  2  0
  7  9  1  0
  9 10  2  0
  9 18  1  0
 10 11  1  0
 10 35  1  0
 11 12  1  0
 12 13  2  0
 12 17  1  0
 13 14  1  0
 13 36  1  0
 14 15  2  0
 14 37  1  0
 15 16  1  0
 15 38  1  0
 16 17  2  0
 16 39  1  0
 17 18  1  0
 18 19  2  0
 20 21  1  0
 21 22  1  0
 21 27  2  0
 22 23  2  0
 22 40  1  0
 23 24  1  0
 23 25  1  0
 25 26  2  0
 25 41  1  0
 26 27  1  0
 26 42  1  0
M  END

