
     RDKit          3D

172183  0  0  0  0  0  0  0  0999 V2000
    2.7855   -1.9196   -3.6205 C   0  0  0  0  0  0  0  0  0  0  0  0
    3.9488   -0.9313   -3.5204 C   0  0  0  0  0  0  0  0  0  0  0  0
    5.2824   -1.6003   -3.1667 C   0  0  0  0  0  0  0  0  0  0  0  0
    6.5005   -0.6643   -3.1503 C   0  0  0  0  0  0  0  0  0  0  0  0
    6.4588    0.4874   -2.1262 C   0  0  1  0  0  0  0  0  0  0  0  0
    6.2691    0.0220   -0.6645 C   0  0  0  0  0  0  0  0  0  0  0  0
    7.3353   -0.9265   -0.1058 C   0  0  0  0  0  0  0  0  0  0  0  0
    7.7035    1.3946   -2.2243 C   0  0  0  0  0  0  0  0  0  0  0  0
    7.8807    2.0522   -3.5308 N   0  0  0  0  0  0  0  0  0  0  0  0
    8.8674    1.5518   -4.3970 C   0  0  0  0  0  0  0  0  0  0  0  0
    9.5510    0.5930   -4.0867 O   0  0  0  0  0  0  0  0  0  0  0  0
    9.0314    2.2474   -5.7040 C   0  0  0  0  0  0  0  0  0  0  0  0
    9.9778    1.7809   -6.6031 C   0  0  0  0  0  0  0  0  0  0  0  0
   10.1522    2.4233   -7.8468 C   0  0  0  0  0  0  0  0  0  0  0  0
    9.3840    3.5237   -8.1825 C   0  0  0  0  0  0  0  0  0  0  0  0
    8.4063    4.0310   -7.2877 C   0  0  0  0  0  0  0  0  0  0  0  0
    7.5830    5.1758   -7.5912 C   0  0  0  0  0  0  0  0  0  0  0  0
    7.7144    5.8637   -8.8297 C   0  0  0  0  0  0  0  0  0  0  0  0
    7.8106    6.4689   -9.8866 C   0  0  0  0  0  0  0  0  0  0  0  0
    7.9105    7.1836  -11.1144 C   0  0  0  0  0  0  0  0  0  0  0  0
    7.0578    8.2770  -11.3879 C   0  0  0  0  0  0  0  0  0  0  0  0
    7.1475    8.9728  -12.5875 C   0  0  0  0  0  0  0  0  0  0  0  0
    8.1025    8.6122  -13.5581 C   0  0  0  0  0  0  0  0  0  0  0  0
    8.1983    9.3258  -14.7789 N   0  0  0  0  0  0  0  0  0  0  0  0
    8.0820   10.7385  -14.7850 C   0  0  0  0  0  0  0  0  0  0  0  0
    8.6982   11.5149  -13.7844 C   0  0  0  0  0  0  0  0  0  0  0  0
    8.5785   12.8995  -13.7871 C   0  0  0  0  0  0  0  0  0  0  0  0
    7.8485   13.5657  -14.7970 C   0  0  0  0  0  0  0  0  0  0  0  0
    7.7285   14.9848  -14.8061 C   0  0  0  0  0  0  0  0  0  0  0  0
    7.6181   16.2013  -14.8246 C   0  0  0  0  0  0  0  0  0  0  0  0
    7.4743   17.6161  -14.8679 C   0  0  0  0  0  0  0  0  0  0  0  0
    6.7451   18.2112  -15.9032 C   0  0  0  0  0  0  0  0  0  0  0  0
    6.5840   19.6041  -15.9755 C   0  0  0  0  0  0  0  0  0  0  0  0
    7.1460   20.4317  -15.0136 C   0  0  0  0  0  0  0  0  0  0  0  0
    7.8946   19.8695  -13.9475 C   0  0  0  0  0  0  0  0  0  0  0  0
    8.4744   20.7173  -12.9663 C   0  0  0  0  0  0  0  0  0  0  0  0
    9.2114   20.1762  -11.9243 C   0  0  0  0  0  0  0  0  0  0  0  0
    9.3875   18.7798  -11.8302 C   0  0  0  0  0  0  0  0  0  0  0  0
    8.8303   17.9365  -12.7746 C   0  0  0  0  0  0  0  0  0  0  0  0
    8.0715   18.4535  -13.8567 C   0  0  0  0  0  0  0  0  0  0  0  0
    8.3038   22.1951  -13.0436 C   0  0  0  0  0  0  0  0  0  0  0  0
    8.8153   22.9440  -12.2298 O   0  0  0  0  0  0  0  0  0  0  0  0
    7.5233   22.6906  -14.1001 N   0  0  0  0  0  0  0  0  0  0  0  0
    7.3313   24.1483  -14.2081 C   0  0  0  0  0  0  0  0  0  0  0  0
    5.9315   24.6411  -13.7838 C   0  0  1  0  0  0  0  0  0  0  0  0
    5.5959   24.3593  -12.3030 C   0  0  0  0  0  0  0  0  0  0  0  0
    6.4107   25.1250  -11.2559 C   0  0  0  0  0  0  0  0  0  0  0  0
    5.7630   26.1314  -14.1478 C   0  0  0  0  0  0  0  0  0  0  0  0
    5.5858   26.4255  -15.6425 C   0  0  0  0  0  0  0  0  0  0  0  0
    5.3858   27.9132  -15.9503 C   0  0  0  0  0  0  0  0  0  0  0  0
    5.1965   28.2097  -17.4387 C   0  0  0  0  0  0  0  0  0  0  0  0
    6.9598   21.9023  -15.1162 C   0  0  0  0  0  0  0  0  0  0  0  0
    6.3455   22.4181  -16.0336 O   0  0  0  0  0  0  0  0  0  0  0  0
    7.2385   12.7803  -15.8011 C   0  0  0  0  0  0  0  0  0  0  0  0
    7.3477   11.3949  -15.7919 C   0  0  0  0  0  0  0  0  0  0  0  0
    8.4092    8.6273  -15.9940 C   0  0  0  0  0  0  0  0  0  0  0  0
    7.7375    7.4168  -16.2535 C   0  0  0  0  0  0  0  0  0  0  0  0
    7.9491    6.7293  -17.4427 C   0  0  0  0  0  0  0  0  0  0  0  0
    8.8310    7.2299  -18.4267 C   0  0  0  0  0  0  0  0  0  0  0  0
    9.0450    6.5316  -19.6493 C   0  0  0  0  0  0  0  0  0  0  0  0
    9.2360    5.9420  -20.7021 C   0  0  0  0  0  0  0  0  0  0  0  0
    9.4738    5.2750  -21.9361 C   0  0  0  0  0  0  0  0  0  0  0  0
   10.3380    5.8415  -22.8795 C   0  0  0  0  0  0  0  0  0  0  0  0
   10.5932    5.2102  -24.1074 C   0  0  0  0  0  0  0  0  0  0  0  0
    9.9922    3.9984  -24.4176 C   0  0  0  0  0  0  0  0  0  0  0  0
    9.1082    3.3897  -23.4897 C   0  0  0  0  0  0  0  0  0  0  0  0
    8.4895    2.1518  -23.8098 C   0  0  0  0  0  0  0  0  0  0  0  0
    7.6209    1.5529  -22.9104 C   0  0  0  0  0  0  0  0  0  0  0  0
    7.3486    2.1677  -21.6704 C   0  0  0  0  0  0  0  0  0  0  0  0
    7.9416    3.3727  -21.3388 C   0  0  0  0  0  0  0  0  0  0  0  0
    8.8341    4.0171  -22.2344 C   0  0  0  0  0  0  0  0  0  0  0  0
    8.7598    1.4826  -25.1129 C   0  0  0  0  0  0  0  0  0  0  0  0
    8.2191    0.4350  -25.4211 O   0  0  0  0  0  0  0  0  0  0  0  0
    9.6697    2.1144  -25.9753 N   0  0  0  0  0  0  0  0  0  0  0  0
    9.9621    1.4811  -27.2741 C   0  0  0  0  0  0  0  0  0  0  0  0
   11.3421    0.7945  -27.3538 C   0  0  1  0  0  0  0  0  0  0  0  0
   11.5155   -0.3698  -26.3543 C   0  0  0  0  0  0  0  0  0  0  0  0
   10.6523   -1.6131  -26.5908 C   0  0  0  0  0  0  0  0  0  0  0  0
   11.6362    0.3661  -28.8071 C   0  0  0  0  0  0  0  0  0  0  0  0
   11.9698    1.5093  -29.7734 C   0  0  0  0  0  0  0  0  0  0  0  0
   12.2918    1.0314  -31.1932 C   0  0  0  0  0  0  0  0  0  0  0  0
   12.6357    2.1676  -32.1575 C   0  0  0  0  0  0  0  0  0  0  0  0
   10.2796    3.3541  -25.7254 C   0  0  0  0  0  0  0  0  0  0  0  0
   11.0122    3.8640  -26.5551 O   0  0  0  0  0  0  0  0  0  0  0  0
    9.4966    8.4481  -18.1616 C   0  0  0  0  0  0  0  0  0  0  0  0
    9.2948    9.1296  -16.9674 C   0  0  0  0  0  0  0  0  0  0  0  0
    8.9603    7.5276  -13.2900 C   0  0  0  0  0  0  0  0  0  0  0  0
    8.8618    6.8241  -12.0954 C   0  0  0  0  0  0  0  0  0  0  0  0
    6.6444    5.6103   -6.6489 C   0  0  0  0  0  0  0  0  0  0  0  0
    6.4898    4.9547   -5.4170 C   0  0  0  0  0  0  0  0  0  0  0  0
    7.2681    3.8500   -5.1013 C   0  0  0  0  0  0  0  0  0  0  0  0
    8.2326    3.3766   -6.0282 C   0  0  0  0  0  0  0  0  0  0  0  0
    7.0837    3.1777   -3.7888 C   0  0  0  0  0  0  0  0  0  0  0  0
    6.2793    3.5726   -2.9626 O   0  0  0  0  0  0  0  0  0  0  0  0
    1.8416   -1.4117   -3.8759 H   0  0  0  0  0  0  0  0  0  0  0  0
    2.6286   -2.4516   -2.6669 H   0  0  0  0  0  0  0  0  0  0  0  0
    2.9728   -2.6833   -4.3942 H   0  0  0  0  0  0  0  0  0  0  0  0
    3.7037   -0.1587   -2.7709 H   0  0  0  0  0  0  0  0  0  0  0  0
    4.0586   -0.3922   -4.4796 H   0  0  0  0  0  0  0  0  0  0  0  0
    5.4786   -2.4026   -3.9009 H   0  0  0  0  0  0  0  0  0  0  0  0
    5.1828   -2.1146   -2.1937 H   0  0  0  0  0  0  0  0  0  0  0  0
    6.6102   -0.2286   -4.1589 H   0  0  0  0  0  0  0  0  0  0  0  0
    7.4137   -1.2622   -2.9920 H   0  0  0  0  0  0  0  0  0  0  0  0
    5.5928    1.1287   -2.3579 H   0  0  0  0  0  0  0  0  0  0  0  0
    5.2805   -0.4587   -0.5748 H   0  0  0  0  0  0  0  0  0  0  0  0
    6.2128    0.9202   -0.0242 H   0  0  0  0  0  0  0  0  0  0  0  0
    7.3857   -1.8714   -0.6699 H   0  0  0  0  0  0  0  0  0  0  0  0
    7.1131   -1.1840    0.9423 H   0  0  0  0  0  0  0  0  0  0  0  0
    8.3425   -0.4800   -0.1228 H   0  0  0  0  0  0  0  0  0  0  0  0
    8.6202    0.8213   -2.0453 H   0  0  0  0  0  0  0  0  0  0  0  0
    7.6207    2.1922   -1.4732 H   0  0  0  0  0  0  0  0  0  0  0  0
   10.5764    0.9120   -6.3233 H   0  0  0  0  0  0  0  0  0  0  0  0
   10.9004    2.0471   -8.5483 H   0  0  0  0  0  0  0  0  0  0  0  0
    9.5209    4.0192   -9.1454 H   0  0  0  0  0  0  0  0  0  0  0  0
    6.3084    8.5665  -10.6487 H   0  0  0  0  0  0  0  0  0  0  0  0
    6.4684    9.8044  -12.7832 H   0  0  0  0  0  0  0  0  0  0  0  0
    9.2791   11.0229  -13.0024 H   0  0  0  0  0  0  0  0  0  0  0  0
    9.0673   13.4854  -13.0061 H   0  0  0  0  0  0  0  0  0  0  0  0
    6.2957   17.5734  -16.6664 H   0  0  0  0  0  0  0  0  0  0  0  0
    6.0147   20.0617  -16.7867 H   0  0  0  0  0  0  0  0  0  0  0  0
    9.6458   20.8546  -11.1877 H   0  0  0  0  0  0  0  0  0  0  0  0
    9.9691   18.3638  -11.0043 H   0  0  0  0  0  0  0  0  0  0  0  0
    8.9685   16.8563  -12.6999 H   0  0  0  0  0  0  0  0  0  0  0  0
    7.5019   24.4105  -15.2597 H   0  0  0  0  0  0  0  0  0  0  0  0
    8.1121   24.6138  -13.5952 H   0  0  0  0  0  0  0  0  0  0  0  0
    5.2024   24.0766  -14.3894 H   0  0  0  0  0  0  0  0  0  0  0  0
    5.6934   23.2755  -12.1150 H   0  0  0  0  0  0  0  0  0  0  0  0
    4.5233   24.5830  -12.1611 H   0  0  0  0  0  0  0  0  0  0  0  0
    7.4801   24.8717  -11.3102 H   0  0  0  0  0  0  0  0  0  0  0  0
    6.0666   24.8689  -10.2407 H   0  0  0  0  0  0  0  0  0  0  0  0
    6.3044   26.2161  -11.3681 H   0  0  0  0  0  0  0  0  0  0  0  0
    6.6221   26.7106  -13.7618 H   0  0  0  0  0  0  0  0  0  0  0  0
    4.8793   26.5204  -13.6105 H   0  0  0  0  0  0  0  0  0  0  0  0
    4.7209   25.8531  -16.0247 H   0  0  0  0  0  0  0  0  0  0  0  0
    6.4571   26.0577  -16.2130 H   0  0  0  0  0  0  0  0  0  0  0  0
    6.2525   28.4832  -15.5680 H   0  0  0  0  0  0  0  0  0  0  0  0
    4.5117   28.2866  -15.3857 H   0  0  0  0  0  0  0  0  0  0  0  0
    6.0704   27.8827  -18.0269 H   0  0  0  0  0  0  0  0  0  0  0  0
    5.0556   29.2868  -17.6233 H   0  0  0  0  0  0  0  0  0  0  0  0
    4.3149   27.6844  -17.8429 H   0  0  0  0  0  0  0  0  0  0  0  0
    6.6611   13.2728  -16.5860 H   0  0  0  0  0  0  0  0  0  0  0  0
    6.8558   10.8077  -16.5693 H   0  0  0  0  0  0  0  0  0  0  0  0
    7.0401    7.0187  -15.5144 H   0  0  0  0  0  0  0  0  0  0  0  0
    7.4153    5.7952  -17.6288 H   0  0  0  0  0  0  0  0  0  0  0  0
   10.8192    6.7937  -22.6495 H   0  0  0  0  0  0  0  0  0  0  0  0
   11.2674    5.6587  -24.8394 H   0  0  0  0  0  0  0  0  0  0  0  0
    7.1600    0.6029  -23.1870 H   0  0  0  0  0  0  0  0  0  0  0  0
    6.6636    1.6865  -20.9685 H   0  0  0  0  0  0  0  0  0  0  0  0
    7.7287    3.8468  -20.3789 H   0  0  0  0  0  0  0  0  0  0  0  0
    9.9109    2.2754  -28.0293 H   0  0  0  0  0  0  0  0  0  0  0  0
    9.1562    0.7617  -27.4607 H   0  0  0  0  0  0  0  0  0  0  0  0
   12.0901    1.5596  -27.0854 H   0  0  0  0  0  0  0  0  0  0  0  0
   11.3336    0.0074  -25.3324 H   0  0  0  0  0  0  0  0  0  0  0  0
   12.5811   -0.6609  -26.3707 H   0  0  0  0  0  0  0  0  0  0  0  0
    9.5795   -1.3834  -26.5069 H   0  0  0  0  0  0  0  0  0  0  0  0
   10.8797   -2.3858  -25.8386 H   0  0  0  0  0  0  0  0  0  0  0  0
   10.8368   -2.0607  -27.5807 H   0  0  0  0  0  0  0  0  0  0  0  0
   10.7825   -0.2116  -29.2071 H   0  0  0  0  0  0  0  0  0  0  0  0
   12.4884   -0.3371  -28.7939 H   0  0  0  0  0  0  0  0  0  0  0  0
   12.8283    2.0812  -29.3761 H   0  0  0  0  0  0  0  0  0  0  0  0
   11.1335    2.2292  -29.8211 H   0  0  0  0  0  0  0  0  0  0  0  0
   11.4317    0.4602  -31.5882 H   0  0  0  0  0  0  0  0  0  0  0  0
   13.1322    0.3143  -31.1534 H   0  0  0  0  0  0  0  0  0  0  0  0
   11.8006    2.8823  -32.2491 H   0  0  0  0  0  0  0  0  0  0  0  0
   12.8613    1.7888  -33.1673 H   0  0  0  0  0  0  0  0  0  0  0  0
   13.5155    2.7352  -31.8105 H   0  0  0  0  0  0  0  0  0  0  0  0
   10.1904    8.8490  -18.9033 H   0  0  0  0  0  0  0  0  0  0  0  0
    9.8307   10.0613  -16.7783 H   0  0  0  0  0  0  0  0  0  0  0  0
    9.7128    7.2412  -14.0268 H   0  0  0  0  0  0  0  0  0  0  0  0
    9.5388    5.9894  -11.9029 H   0  0  0  0  0  0  0  0  0  0  0  0
    6.0241    6.4772   -6.8831 H   0  0  0  0  0  0  0  0  0  0  0  0
    5.7563    5.2999   -4.6859 H   0  0  0  0  0  0  0  0  0  0  0  0
  1  2  1  0
  1 95  1  0
  1 96  1  0
  1 97  1  0
  2  3  1  0
  2 98  1  0
  2 99  1  0
  3  4  1  0
  3100  1  0
  3101  1  0
  4  5  1  0
  4102  1  0
  4103  1  0
  5  6  1  0
  5  8  1  0
  5104  1  6
  6  7  1  0
  6105  1  0
  6106  1  0
  7107  1  0
  7108  1  0
  7109  1  0
  8  9  1  0
  8110  1  0
  8111  1  0
  9 10  1  0
  9 93  1  0
 10 11  2  0
 10 12  1  0
 12 13  1  0
 12 92  2  0
 13 14  2  0
 13112  1  0
 14 15  1  0
 14113  1  0
 15 16  2  0
 15114  1  0
 16 17  1  0
 16 92  1  0
 17 18  1  0
 17 89  2  0
 18 19  3  0
 19 20  1  0
 20 21  2  0
 20 88  1  0
 21 22  1  0
 21115  1  0
 22 23  2  0
 22116  1  0
 23 24  1  0
 23 87  1  0
 24 25  1  0
 24 56  1  0
 25 26  2  0
 25 55  1  0
 26 27  1  0
 26117  1  0
 27 28  2  0
 27118  1  0
 28 29  1  0
 28 54  1  0
 29 30  3  0
 30 31  1  0
 31 32  2  0
 31 40  1  0
 32 33  1  0
 32119  1  0
 33 34  2  0
 33120  1  0
 34 35  1  0
 34 52  1  0
 35 36  1  0
 35 40  2  0
 36 37  2  0
 36 41  1  0
 37 38  1  0
 37121  1  0
 38 39  2  0
 38122  1  0
 39 40  1  0
 39123  1  0
 41 42  2  0
 41 43  1  0
 43 44  1  0
 43 52  1  0
 44 45  1  0
 44124  1  0
 44125  1  0
 45 46  1  0
 45 48  1  0
 45126  1  6
 46 47  1  0
 46127  1  0
 46128  1  0
 47129  1  0
 47130  1  0
 47131  1  0
 48 49  1  0
 48132  1  0
 48133  1  0
 49 50  1  0
 49134  1  0
 49135  1  0
 50 51  1  0
 50136  1  0
 50137  1  0
 51138  1  0
 51139  1  0
 51140  1  0
 52 53  2  0
 54 55  2  0
 54141  1  0
 55142  1  0
 56 57  2  0
 56 86  1  0
 57 58  1  0
 57143  1  0
 58 59  2  0
 58144  1  0
 59 60  1  0
 59 85  1  0
 60 61  3  0
 61 62  1  0
 62 63  2  0
 62 71  1  0
 63 64  1  0
 63145  1  0
 64 65  2  0
 64146  1  0
 65 66  1  0
 65 83  1  0
 66 67  1  0
 66 71  2  0
 67 68  2  0
 67 72  1  0
 68 69  1  0
 68147  1  0
 69 70  2  0
 69148  1  0
 70 71  1  0
 70149  1  0
 72 73  2  0
 72 74  1  0
 74 75  1  0
 74 83  1  0
 75 76  1  0
 75150  1  0
 75151  1  0
 76 77  1  0
 76 79  1  0
 76152  1  1
 77 78  1  0
 77153  1  0
 77154  1  0
 78155  1  0
 78156  1  0
 78157  1  0
 79 80  1  0
 79158  1  0
 79159  1  0
 80 81  1  0
 80160  1  0
 80161  1  0
 81 82  1  0
 81162  1  0
 81163  1  0
 82164  1  0
 82165  1  0
 82166  1  0
 83 84  2  0
 85 86  2  0
 85167  1  0
 86168  1  0
 87 88  2  0
 87169  1  0
 88170  1  0
 89 90  1  0
 89171  1  0
 90 91  2  0
 90172  1  0
 91 92  1  0
 91 93  1  0
 93 94  2  0
M  END

