
     RDKit          3D

 62 66  0  0  0  0  0  0  0  0999 V2000
    4.1551    1.5710   -1.4772 O   0  0  0  0  0  0  0  0  0  0  0  0
    3.3220    0.7124   -1.2297 C   0  0  0  0  0  0  0  0  0  0  0  0
    3.6995   -0.7786   -1.2055 C   0  0  0  0  0  0  0  0  0  0  0  0
    2.5612   -1.6761   -1.3511 N   0  0  0  0  0  0  0  0  0  0  0  0
    2.1314   -1.8821   -2.7400 C   0  0  0  0  0  0  0  0  0  0  0  0
    2.9877   -2.9077   -3.4954 C   0  0  0  0  0  0  0  0  0  0  0  0
    3.0464   -4.1617   -2.7451 N   0  0  0  0  0  0  0  0  0  0  0  0
    2.7643   -5.3323   -3.4057 C   0  0  0  0  0  0  0  0  0  0  0  0
    2.4970   -5.3460   -4.6047 O   0  0  0  0  0  0  0  0  0  0  0  0
    2.7695   -6.6531   -2.6971 C   0  0  0  0  0  0  0  0  0  0  0  0
    2.7183   -6.8606   -1.3747 N   0  0  0  0  0  0  0  0  0  0  0  0
    2.6889   -8.2004   -1.1948 N   0  0  0  0  0  0  0  0  0  0  0  0
    2.5911   -8.7385    0.1146 C   0  0  0  0  0  0  0  0  0  0  0  0
    2.0000   -7.9790    1.1358 C   0  0  0  0  0  0  0  0  0  0  0  0
    1.8988   -8.4996    2.4249 C   0  0  0  0  0  0  0  0  0  0  0  0
    2.3803   -9.7822    2.6834 C   0  0  0  0  0  0  0  0  0  0  0  0
    2.2764  -10.2850    3.9210 F   0  0  0  0  0  0  0  0  0  0  0  0
    2.9691  -10.5502    1.6824 C   0  0  0  0  0  0  0  0  0  0  0  0
    3.0814  -10.0218    0.3948 C   0  0  0  0  0  0  0  0  0  0  0  0
    2.7084   -8.8504   -2.4003 C   0  0  0  0  0  0  0  0  0  0  0  0
    2.7549   -7.8952   -3.3851 C   0  0  0  0  0  0  0  0  0  0  0  0
    2.7694   -8.5152   -4.7514 C   0  0  0  0  0  0  0  0  0  0  0  0
    2.3808   -9.9964   -4.4378 C   0  0  0  0  0  0  0  0  0  0  0  0
    2.6803  -10.2563   -2.9240 C   0  0  0  0  0  0  0  0  0  0  0  0
    3.5196   -3.9979   -1.3725 C   0  0  0  0  0  0  0  0  0  0  0  0
    2.6545   -2.9555   -0.6475 C   0  0  0  0  0  0  0  0  0  0  0  0
    2.0268    0.9623   -0.9096 N   0  0  0  0  0  0  0  0  0  0  0  0
    1.4602    2.3001   -0.8899 C   0  0  0  0  0  0  0  0  0  0  0  0
    0.6924    2.6592   -2.1502 C   0  0  0  0  0  0  0  0  0  0  0  0
   -0.7025    2.7910   -2.1379 C   0  0  0  0  0  0  0  0  0  0  0  0
   -1.4027    3.1066   -3.3079 C   0  0  0  0  0  0  0  0  0  0  0  0
   -0.7114    3.2928   -4.5071 C   0  0  0  0  0  0  0  0  0  0  0  0
    0.6828    3.1656   -4.5300 C   0  0  0  0  0  0  0  0  0  0  0  0
    1.3798    2.8530   -3.3613 C   0  0  0  0  0  0  0  0  0  0  0  0
    4.1781   -0.9576   -0.2282 H   0  0  0  0  0  0  0  0  0  0  0  0
    4.4966   -0.9027   -1.9630 H   0  0  0  0  0  0  0  0  0  0  0  0
    2.1400   -0.9168   -3.2699 H   0  0  0  0  0  0  0  0  0  0  0  0
    1.0860   -2.2374   -2.7295 H   0  0  0  0  0  0  0  0  0  0  0  0
    4.0143   -2.5203   -3.6409 H   0  0  0  0  0  0  0  0  0  0  0  0
    2.5704   -3.1226   -4.4865 H   0  0  0  0  0  0  0  0  0  0  0  0
    1.6238   -6.9831    0.9042 H   0  0  0  0  0  0  0  0  0  0  0  0
    1.4414   -7.9261    3.2334 H   0  0  0  0  0  0  0  0  0  0  0  0
    3.3460  -11.5464    1.9206 H   0  0  0  0  0  0  0  0  0  0  0  0
    3.5681  -10.6085   -0.3842 H   0  0  0  0  0  0  0  0  0  0  0  0
    3.7715   -8.4399   -5.2100 H   0  0  0  0  0  0  0  0  0  0  0  0
    2.0727   -8.0291   -5.4486 H   0  0  0  0  0  0  0  0  0  0  0  0
    2.8960  -10.7188   -5.0881 H   0  0  0  0  0  0  0  0  0  0  0  0
    1.3000  -10.1256   -4.6075 H   0  0  0  0  0  0  0  0  0  0  0  0
    3.6556  -10.7580   -2.7841 H   0  0  0  0  0  0  0  0  0  0  0  0
    1.9211  -10.8977   -2.4484 H   0  0  0  0  0  0  0  0  0  0  0  0
    4.5737   -3.6568   -1.3944 H   0  0  0  0  0  0  0  0  0  0  0  0
    3.4800   -4.9564   -0.8467 H   0  0  0  0  0  0  0  0  0  0  0  0
    3.0447   -2.7832    0.3682 H   0  0  0  0  0  0  0  0  0  0  0  0
    1.6347   -3.3675   -0.5441 H   0  0  0  0  0  0  0  0  0  0  0  0
    1.4378    0.1389   -0.8059 H   0  0  0  0  0  0  0  0  0  0  0  0
    2.3068    2.9905   -0.7587 H   0  0  0  0  0  0  0  0  0  0  0  0
    0.8026    2.3989   -0.0112 H   0  0  0  0  0  0  0  0  0  0  0  0
   -1.2497    2.6485   -1.2008 H   0  0  0  0  0  0  0  0  0  0  0  0
   -2.4910    3.2071   -3.2806 H   0  0  0  0  0  0  0  0  0  0  0  0
   -1.2554    3.5401   -5.4224 H   0  0  0  0  0  0  0  0  0  0  0  0
    1.2300    3.3177   -5.4642 H   0  0  0  0  0  0  0  0  0  0  0  0
    2.4695    2.7617   -3.3744 H   0  0  0  0  0  0  0  0  0  0  0  0
  1  2  2  0
  2  3  1  0
  2 27  1  0
  3  4  1  0
  3 35  1  0
  3 36  1  0
  4  5  1  0
  4 26  1  0
  5  6  1  0
  5 37  1  0
  5 38  1  0
  6  7  1  0
  6 39  1  0
  6 40  1  0
  7  8  1  0
  7 25  1  0
  8  9  2  0
  8 10  1  0
 10 11  2  0
 10 21  1  0
 11 12  1  0
 12 13  1  0
 12 20  1  0
 13 14  2  0
 13 19  1  0
 14 15  1  0
 14 41  1  0
 15 16  2  0
 15 42  1  0
 16 17  1  0
 16 18  1  0
 18 19  2  0
 18 43  1  0
 19 44  1  0
 20 21  2  0
 20 24  1  0
 21 22  1  0
 22 23  1  0
 22 45  1  0
 22 46  1  0
 23 24  1  0
 23 47  1  0
 23 48  1  0
 24 49  1  0
 24 50  1  0
 25 26  1  0
 25 51  1  0
 25 52  1  0
 26 53  1  0
 26 54  1  0
 27 28  1  0
 27 55  1  0
 28 29  1  0
 28 56  1  0
 28 57  1  0
 29 30  2  0
 29 34  1  0
 30 31  1  0
 30 58  1  0
 31 32  2  0
 31 59  1  0
 32 33  1  0
 32 60  1  0
 33 34  2  0
 33 61  1  0
 34 62  1  0
M  END

