
     RDKit          3D

 52 56  0  0  0  0  0  0  0  0999 V2000
    1.7273   -0.5287   -0.3023 O   0  0  0  0  0  0  0  0  0  0  0  0
    2.3322    0.4183    0.1859 C   0  0  0  0  0  0  0  0  0  0  0  0
    2.1291    0.6519    1.6649 C   0  0  0  0  0  0  0  0  0  0  0  0
    1.3723   -0.2574    2.4595 C   0  0  0  0  0  0  0  0  0  0  0  0
    1.3912    0.3000    3.7106 C   0  0  0  0  0  0  0  0  0  0  0  0
    0.8253   -0.0898    5.0002 C   0  0  0  0  0  0  0  0  0  0  0  0
    0.0707   -1.2672    5.1383 C   0  0  0  0  0  0  0  0  0  0  0  0
   -0.4463   -1.5935    6.3887 C   0  0  0  0  0  0  0  0  0  0  0  0
   -0.1932   -0.7325    7.4632 C   0  0  0  0  0  0  0  0  0  0  0  0
    0.5216    0.3893    7.3479 N   0  0  0  0  0  0  0  0  0  0  0  0
    1.0159    0.7009    6.1515 C   0  0  0  0  0  0  0  0  0  0  0  0
    2.1014    1.4524    3.6602 O   0  0  0  0  0  0  0  0  0  0  0  0
    2.5581    1.6685    2.3862 N   0  0  0  0  0  0  0  0  0  0  0  0
    3.1502    1.2265   -0.5543 N   0  0  0  0  0  0  0  0  0  0  0  0
    3.2902    0.9632   -1.9862 C   0  0  0  0  0  0  0  0  0  0  0  0
    2.9523    2.2127   -2.7952 C   0  0  0  0  0  0  0  0  0  0  0  0
    3.7305    3.3633   -2.3385 N   0  0  0  0  0  0  0  0  0  0  0  0
    4.1925    4.2979   -3.2374 C   0  0  0  0  0  0  0  0  0  0  0  0
    4.6976    5.5565   -2.8598 C   0  0  0  0  0  0  0  0  0  0  0  0
    5.1790    6.3962   -3.8827 C   0  0  0  0  0  0  0  0  0  0  0  0
    5.6867    7.6279   -3.5398 N   0  0  0  0  0  0  0  0  0  0  0  0
    6.2196    8.6752   -4.2950 C   0  0  0  0  0  0  0  0  0  0  0  0
    6.3528    8.6740   -5.6983 C   0  0  0  0  0  0  0  0  0  0  0  0
    6.9063    9.8048   -6.2936 C   0  0  0  0  0  0  0  0  0  0  0  0
    7.3075   10.8882   -5.5048 C   0  0  0  0  0  0  0  0  0  0  0  0
    7.1293   10.7811   -4.1242 C   0  0  0  0  0  0  0  0  0  0  0  0
    6.6021    9.7099   -3.5325 N   0  0  0  0  0  0  0  0  0  0  0  0
    5.1465    6.0273   -5.1745 N   0  0  0  0  0  0  0  0  0  0  0  0
    4.6280    4.8254   -5.4181 C   0  0  0  0  0  0  0  0  0  0  0  0
    4.1546    3.9513   -4.5454 N   0  0  0  0  0  0  0  0  0  0  0  0
    3.6457    3.6146   -0.9092 C   0  0  0  0  0  0  0  0  0  0  0  0
    3.9641    2.3491   -0.1034 C   0  0  0  0  0  0  0  0  0  0  0  0
    0.9018   -1.1694    2.1080 H   0  0  0  0  0  0  0  0  0  0  0  0
   -0.1078   -1.9163    4.2779 H   0  0  0  0  0  0  0  0  0  0  0  0
   -1.0373   -2.5004    6.5331 H   0  0  0  0  0  0  0  0  0  0  0  0
   -0.5871   -0.9627    8.4601 H   0  0  0  0  0  0  0  0  0  0  0  0
    1.5983    1.6252    6.0822 H   0  0  0  0  0  0  0  0  0  0  0  0
    2.6212    0.1360   -2.2499 H   0  0  0  0  0  0  0  0  0  0  0  0
    4.3314    0.6553   -2.1941 H   0  0  0  0  0  0  0  0  0  0  0  0
    1.8699    2.4290   -2.6916 H   0  0  0  0  0  0  0  0  0  0  0  0
    3.1662    2.0579   -3.8584 H   0  0  0  0  0  0  0  0  0  0  0  0
    4.7180    5.8992   -1.8265 H   0  0  0  0  0  0  0  0  0  0  0  0
    5.6919    7.8576   -2.5511 H   0  0  0  0  0  0  0  0  0  0  0  0
    6.0272    7.8076   -6.2682 H   0  0  0  0  0  0  0  0  0  0  0  0
    7.0238    9.8369   -7.3802 H   0  0  0  0  0  0  0  0  0  0  0  0
    7.7443   11.7875   -5.9434 H   0  0  0  0  0  0  0  0  0  0  0  0
    7.4271   11.6018   -3.4604 H   0  0  0  0  0  0  0  0  0  0  0  0
    4.5894    4.5243   -6.4733 H   0  0  0  0  0  0  0  0  0  0  0  0
    2.6346    3.9780   -0.6339 H   0  0  0  0  0  0  0  0  0  0  0  0
    4.3672    4.3873   -0.6172 H   0  0  0  0  0  0  0  0  0  0  0  0
    3.7984    2.5389    0.9611 H   0  0  0  0  0  0  0  0  0  0  0  0
    5.0298    2.0926   -0.2524 H   0  0  0  0  0  0  0  0  0  0  0  0
  1  2  2  0
  2  3  1  0
  2 14  1  0
  3  4  1  0
  3 13  2  0
  4  5  2  0
  4 33  1  0
  5  6  1  0
  5 12  1  0
  6  7  2  0
  6 11  1  0
  7  8  1  0
  7 34  1  0
  8  9  2  0
  8 35  1  0
  9 10  1  0
  9 36  1  0
 10 11  2  0
 11 37  1  0
 12 13  1  0
 14 15  1  0
 14 32  1  0
 15 16  1  0
 15 38  1  0
 15 39  1  0
 16 17  1  0
 16 40  1  0
 16 41  1  0
 17 18  1  0
 17 31  1  0
 18 19  2  0
 18 30  1  0
 19 20  1  0
 19 42  1  0
 20 21  1  0
 20 28  2  0
 21 22  1  0
 21 43  1  0
 22 23  2  0
 22 27  1  0
 23 24  1  0
 23 44  1  0
 24 25  2  0
 24 45  1  0
 25 26  1  0
 25 46  1  0
 26 27  2  0
 26 47  1  0
 28 29  1  0
 29 30  2  0
 29 48  1  0
 31 32  1  0
 31 49  1  0
 31 50  1  0
 32 51  1  0
 32 52  1  0
M  END

