
     RDKit          3D

 52 53  0  0  0  0  0  0  0  0999 V2000
    0.7461   -0.1190    1.3098 C   0  0  0  0  0  0  0  0  0  0  0  0
    1.8631    0.4047    0.6300 O   0  0  0  0  0  0  0  0  0  0  0  0
    2.5758    1.4109    1.2002 C   0  0  0  0  0  0  0  0  0  0  0  0
    2.2862    1.9872    2.4454 C   0  0  0  0  0  0  0  0  0  0  0  0
    3.0914    3.0237    2.9342 C   0  0  0  0  0  0  0  0  0  0  0  0
    4.1888    3.5116    2.2151 C   0  0  0  0  0  0  0  0  0  0  0  0
    5.0709    4.6077    2.7716 C   0  0  0  0  0  0  0  0  0  0  0  0
    6.2825    4.0590    3.5407 C   0  0  0  0  0  0  0  0  0  0  0  0
    7.1620    5.1646    4.1173 C   0  0  0  0  0  0  0  0  0  0  0  0
    6.7942    6.3409    4.1019 O   0  0  0  0  0  0  0  0  0  0  0  0
    8.3762    4.8197    4.6428 N   0  0  0  0  0  0  0  0  0  0  0  0
    8.8504    3.4623    4.8700 C   0  0  0  0  0  0  0  0  0  0  0  0
    9.2659    5.8988    5.0752 C   0  0  0  0  0  0  0  0  0  0  0  0
    9.0114    6.3273    6.5323 C   0  0  0  0  0  0  0  0  0  0  0  0
    9.7130    5.9246    7.4444 O   0  0  0  0  0  0  0  0  0  0  0  0
    7.9350    7.1627    6.6724 N   0  0  0  0  0  0  0  0  0  0  0  0
    7.4148    7.6505    7.9055 C   0  0  0  0  0  0  0  0  0  0  0  0
    8.2111    8.4510    8.7541 C   0  0  0  0  0  0  0  0  0  0  0  0
    9.6265    8.8206    8.3965 C   0  0  0  0  0  0  0  0  0  0  0  0
    7.6393    8.9197    9.9468 C   0  0  0  0  0  0  0  0  0  0  0  0
    6.3180    8.6288   10.2823 C   0  0  0  0  0  0  0  0  0  0  0  0
    5.5390    7.8549    9.4211 C   0  0  0  0  0  0  0  0  0  0  0  0
    6.0715    7.3508    8.2282 C   0  0  0  0  0  0  0  0  0  0  0  0
    5.2324    6.4881    7.3172 C   0  0  0  0  0  0  0  0  0  0  0  0
    4.4592    2.9212    0.9663 C   0  0  0  0  0  0  0  0  0  0  0  0
    3.6723    1.8908    0.4626 C   0  0  0  0  0  0  0  0  0  0  0  0
    0.3314   -0.9099    0.6700 H   0  0  0  0  0  0  0  0  0  0  0  0
   -0.0320    0.6479    1.4781 H   0  0  0  0  0  0  0  0  0  0  0  0
    1.0248   -0.5590    2.2848 H   0  0  0  0  0  0  0  0  0  0  0  0
    1.4385    1.6458    3.0399 H   0  0  0  0  0  0  0  0  0  0  0  0
    2.8452    3.4663    3.9043 H   0  0  0  0  0  0  0  0  0  0  0  0
    4.4932    5.2615    3.4415 H   0  0  0  0  0  0  0  0  0  0  0  0
    5.4318    5.2567    1.9580 H   0  0  0  0  0  0  0  0  0  0  0  0
    6.8828    3.4048    2.8868 H   0  0  0  0  0  0  0  0  0  0  0  0
    5.9339    3.4137    4.3670 H   0  0  0  0  0  0  0  0  0  0  0  0
    8.0413    2.7335    4.7508 H   0  0  0  0  0  0  0  0  0  0  0  0
    9.2377    3.3753    5.8975 H   0  0  0  0  0  0  0  0  0  0  0  0
    9.6654    3.1972    4.1727 H   0  0  0  0  0  0  0  0  0  0  0  0
    9.1368    6.7510    4.3934 H   0  0  0  0  0  0  0  0  0  0  0  0
   10.3025    5.5408    5.0242 H   0  0  0  0  0  0  0  0  0  0  0  0
    7.3533    7.2481    5.8352 H   0  0  0  0  0  0  0  0  0  0  0  0
    9.7015    9.1288    7.3410 H   0  0  0  0  0  0  0  0  0  0  0  0
   10.2988    7.9574    8.5220 H   0  0  0  0  0  0  0  0  0  0  0  0
    9.9874    9.6477    9.0248 H   0  0  0  0  0  0  0  0  0  0  0  0
    8.2460    9.5387   10.6135 H   0  0  0  0  0  0  0  0  0  0  0  0
    5.8917    9.0110   11.2134 H   0  0  0  0  0  0  0  0  0  0  0  0
    4.5013    7.6261    9.6791 H   0  0  0  0  0  0  0  0  0  0  0  0
    4.2253    6.3437    7.7341 H   0  0  0  0  0  0  0  0  0  0  0  0
    5.6892    5.4932    7.1796 H   0  0  0  0  0  0  0  0  0  0  0  0
    5.1205    6.9212    6.3092 H   0  0  0  0  0  0  0  0  0  0  0  0
    5.3024    3.2846    0.3706 H   0  0  0  0  0  0  0  0  0  0  0  0
    3.8803    1.4388   -0.5096 H   0  0  0  0  0  0  0  0  0  0  0  0
  1  2  1  0
  1 27  1  0
  1 28  1  0
  1 29  1  0
  2  3  1  0
  3  4  2  0
  3 26  1  0
  4  5  1  0
  4 30  1  0
  5  6  2  0
  5 31  1  0
  6  7  1  0
  6 25  1  0
  7  8  1  0
  7 32  1  0
  7 33  1  0
  8  9  1  0
  8 34  1  0
  8 35  1  0
  9 10  2  0
  9 11  1  0
 11 12  1  0
 11 13  1  0
 12 36  1  0
 12 37  1  0
 12 38  1  0
 13 14  1  0
 13 39  1  0
 13 40  1  0
 14 15  2  0
 14 16  1  0
 16 17  1  0
 16 41  1  0
 17 18  2  0
 17 23  1  0
 18 19  1  0
 18 20  1  0
 19 42  1  0
 19 43  1  0
 19 44  1  0
 20 21  2  0
 20 45  1  0
 21 22  1  0
 21 46  1  0
 22 23  2  0
 22 47  1  0
 23 24  1  0
 24 48  1  0
 24 49  1  0
 24 50  1  0
 25 26  2  0
 25 51  1  0
 26 52  1  0
M  END

