
     RDKit          3D

 33 33  0  0  0  0  0  0  0  0999 V2000
    4.4248    2.1815    0.9122 C   0  0  0  0  0  0  0  0  0  0  0  0
    3.5936    0.8956    0.9323 C   0  0  1  0  0  0  0  0  0  0  0  0
    3.0054    0.5051   -0.3519 N   0  0  0  0  0  0  0  0  0  0  0  0
    4.4002   -0.2703    1.5314 C   0  0  0  0  0  0  0  0  0  0  0  0
    5.1939   -0.0929    2.4622 O   0  0  0  0  0  0  0  0  0  0  0  0
    4.1543   -1.4835    1.0012 N   0  0  0  0  0  0  0  0  0  0  0  0
    4.7947   -2.6594    1.5812 C   0  0  1  0  0  0  0  0  0  0  0  0
    4.0648   -3.9645    1.2260 C   0  0  0  0  0  0  0  0  0  0  0  0
    4.4775   -4.5909   -0.1086 C   0  0  0  0  0  0  0  0  0  0  0  0
    5.9909   -4.8190   -0.1331 C   0  0  0  0  0  0  0  0  0  0  0  0
    6.7342   -3.4900    0.0185 C   0  0  0  0  0  0  0  0  0  0  0  0
    6.3310   -2.6695    1.2551 C   0  0  2  0  0  0  0  0  0  0  0  0
    7.1120   -3.0167    2.5261 C   0  0  0  0  0  0  0  0  0  0  0  0
    7.8039   -3.9934    2.6642 O   0  0  0  0  0  0  0  0  0  0  0  0
    6.9609   -2.1121    3.5080 O   0  0  0  0  0  0  0  0  0  0  0  0
    3.8035    3.0375    0.6059 H   0  0  0  0  0  0  0  0  0  0  0  0
    5.2647    2.0924    0.2025 H   0  0  0  0  0  0  0  0  0  0  0  0
    4.8477    2.3837    1.9060 H   0  0  0  0  0  0  0  0  0  0  0  0
    2.7562    1.0351    1.6404 H   0  0  0  0  0  0  0  0  0  0  0  0
    3.6687    0.6708   -1.1112 H   0  0  0  0  0  0  0  0  0  0  0  0
    2.1821    1.0675   -0.5610 H   0  0  0  0  0  0  0  0  0  0  0  0
    3.4807   -1.5160    0.2380 H   0  0  0  0  0  0  0  0  0  0  0  0
    4.6962   -2.5264    2.6688 H   0  0  0  0  0  0  0  0  0  0  0  0
    2.9772   -3.7848    1.2736 H   0  0  0  0  0  0  0  0  0  0  0  0
    4.2889   -4.6893    2.0266 H   0  0  0  0  0  0  0  0  0  0  0  0
    4.1860   -3.9362   -0.9518 H   0  0  0  0  0  0  0  0  0  0  0  0
    3.9330   -5.5387   -0.2524 H   0  0  0  0  0  0  0  0  0  0  0  0
    6.2952   -5.3099   -1.0722 H   0  0  0  0  0  0  0  0  0  0  0  0
    6.2787   -5.4967    0.6888 H   0  0  0  0  0  0  0  0  0  0  0  0
    6.5341   -2.8753   -0.8774 H   0  0  0  0  0  0  0  0  0  0  0  0
    7.8210   -3.6597    0.0516 H   0  0  0  0  0  0  0  0  0  0  0  0
    6.6024   -1.6212    1.0598 H   0  0  0  0  0  0  0  0  0  0  0  0
    6.3876   -1.3642    3.2154 H   0  0  0  0  0  0  0  0  0  0  0  0
  1  2  1  0
  1 16  1  0
  1 17  1  0
  1 18  1  0
  2  3  1  0
  2  4  1  0
  2 19  1  1
  3 20  1  0
  3 21  1  0
  4  5  2  0
  4  6  1  0
  6  7  1  0
  6 22  1  0
  7  8  1  0
  7 12  1  0
  7 23  1  1
  8  9  1  0
  8 24  1  0
  8 25  1  0
  9 10  1  0
  9 26  1  0
  9 27  1  0
 10 11  1  0
 10 28  1  0
 10 29  1  0
 11 12  1  0
 11 30  1  0
 11 31  1  0
 12 13  1  0
 12 32  1  6
 13 14  2  0
 13 15  1  0
 15 33  1  0
M  END

