
     RDKit          3D

 48 49  0  0  0  0  0  0  0  0999 V2000
    0.6853   -0.0199   -0.1122 C   0  0  0  0  0  0  0  0  0  0  0  0
    2.2035    0.1967   -0.2146 C   0  0  1  0  0  0  0  0  0  0  0  0
    2.9767   -1.1263   -0.4082 C   0  0  0  0  0  0  0  0  0  0  0  0
    2.8798   -1.6699   -1.8415 C   0  0  0  0  0  0  0  0  0  0  0  0
    3.3850   -0.6593   -2.9016 C   0  0  2  0  0  0  0  0  0  0  0  0
    4.9237   -0.4088   -2.8572 C   0  0  1  0  0  0  0  0  0  0  0  0
    5.7197   -1.7184   -2.7222 C   0  0  0  0  0  0  0  0  0  0  0  0
    5.4351    0.3540   -4.0915 C   0  0  0  0  0  0  0  0  0  0  0  0
    2.4803    0.5843   -2.7219 C   0  0  2  0  0  0  0  0  0  0  0  0
    2.7283    1.6413   -3.6731 O   0  0  0  0  0  0  0  0  0  0  0  0
    2.0916    1.5580   -4.8668 C   0  0  0  0  0  0  0  0  0  0  0  0
    1.3774    0.6352   -5.2002 O   0  0  0  0  0  0  0  0  0  0  0  0
    2.3457    2.6454   -5.6544 N   0  0  0  0  0  0  0  0  0  0  0  0
    3.1929    3.7845   -5.3543 C   0  0  0  0  0  0  0  0  0  0  0  0
    2.5675    5.1116   -5.7473 C   0  0  0  0  0  0  0  0  0  0  0  0
    1.2053    5.3671   -5.5248 C   0  0  0  0  0  0  0  0  0  0  0  0
    0.6498    6.6061   -5.8537 C   0  0  0  0  0  0  0  0  0  0  0  0
    1.4481    7.6109   -6.4100 C   0  0  0  0  0  0  0  0  0  0  0  0
    2.8048    7.3658   -6.6384 C   0  0  0  0  0  0  0  0  0  0  0  0
    3.3571    6.1234   -6.3126 C   0  0  0  0  0  0  0  0  0  0  0  0
    2.5801    1.2012   -1.3265 C   0  0  0  0  0  0  0  0  0  0  0  0
    0.4419   -0.6939    0.7251 H   0  0  0  0  0  0  0  0  0  0  0  0
    0.2559   -0.4634   -1.0246 H   0  0  0  0  0  0  0  0  0  0  0  0
    0.1625    0.9339    0.0652 H   0  0  0  0  0  0  0  0  0  0  0  0
    2.5261    0.6364    0.7455 H   0  0  0  0  0  0  0  0  0  0  0  0
    2.6050   -1.8804    0.3065 H   0  0  0  0  0  0  0  0  0  0  0  0
    4.0375   -0.9624   -0.1506 H   0  0  0  0  0  0  0  0  0  0  0  0
    1.8290   -1.9153   -2.0718 H   0  0  0  0  0  0  0  0  0  0  0  0
    3.4240   -2.6217   -1.9242 H   0  0  0  0  0  0  0  0  0  0  0  0
    3.1540   -1.0789   -3.8961 H   0  0  0  0  0  0  0  0  0  0  0  0
    5.1583    0.2060   -1.9697 H   0  0  0  0  0  0  0  0  0  0  0  0
    5.4654   -2.4231   -3.5331 H   0  0  0  0  0  0  0  0  0  0  0  0
    5.5452   -2.2317   -1.7653 H   0  0  0  0  0  0  0  0  0  0  0  0
    6.8008   -1.5166   -2.7902 H   0  0  0  0  0  0  0  0  0  0  0  0
    5.1945   -0.1954   -5.0182 H   0  0  0  0  0  0  0  0  0  0  0  0
    6.5312    0.4640   -4.0488 H   0  0  0  0  0  0  0  0  0  0  0  0
    4.9971    1.3559   -4.1721 H   0  0  0  0  0  0  0  0  0  0  0  0
    1.4508    0.2429   -2.9027 H   0  0  0  0  0  0  0  0  0  0  0  0
    1.9236    2.5869   -6.5743 H   0  0  0  0  0  0  0  0  0  0  0  0
    4.1773    3.6900   -5.8493 H   0  0  0  0  0  0  0  0  0  0  0  0
    3.3874    3.7677   -4.2719 H   0  0  0  0  0  0  0  0  0  0  0  0
    0.5761    4.5839   -5.0946 H   0  0  0  0  0  0  0  0  0  0  0  0
   -0.4131    6.7883   -5.6743 H   0  0  0  0  0  0  0  0  0  0  0  0
    1.0128    8.5795   -6.6687 H   0  0  0  0  0  0  0  0  0  0  0  0
    3.4360    8.1418   -7.0793 H   0  0  0  0  0  0  0  0  0  0  0  0
    4.4182    5.9355   -6.5024 H   0  0  0  0  0  0  0  0  0  0  0  0
    1.9224    2.0848   -1.2821 H   0  0  0  0  0  0  0  0  0  0  0  0
    3.6072    1.5693   -1.1652 H   0  0  0  0  0  0  0  0  0  0  0  0
  1  2  1  0
  1 22  1  0
  1 23  1  0
  1 24  1  0
  2  3  1  0
  2 21  1  0
  2 25  1  1
  3  4  1  0
  3 26  1  0
  3 27  1  0
  4  5  1  0
  4 28  1  0
  4 29  1  0
  5  6  1  0
  5  9  1  0
  5 30  1  6
  6  7  1  0
  6  8  1  0
  6 31  1  1
  7 32  1  0
  7 33  1  0
  7 34  1  0
  8 35  1  0
  8 36  1  0
  8 37  1  0
  9 10  1  0
  9 21  1  0
  9 38  1  6
 10 11  1  0
 11 12  2  0
 11 13  1  0
 13 14  1  0
 13 39  1  0
 14 15  1  0
 14 40  1  0
 14 41  1  0
 15 16  2  0
 15 20  1  0
 16 17  1  0
 16 42  1  0
 17 18  2  0
 17 43  1  0
 18 19  1  0
 18 44  1  0
 19 20  2  0
 19 45  1  0
 20 46  1  0
 21 47  1  0
 21 48  1  0
M  END

