
     RDKit          3D

 47 47  0  0  0  0  0  0  0  0999 V2000
    1.7728   -1.0775   -1.6720 C   0  0  0  0  0  0  0  0  0  0  0  0
    2.5273    0.2031   -1.3716 C   0  0  0  0  0  0  0  0  0  0  0  0
    3.7676   -0.1343   -0.7566 O   0  0  0  0  0  0  0  0  0  0  0  0
    4.6672    0.8450   -0.4605 C   0  0  0  0  0  0  0  0  0  0  0  0
    4.4192    2.2148   -0.6082 C   0  0  0  0  0  0  0  0  0  0  0  0
    5.4074    3.1739   -0.3269 C   0  0  0  0  0  0  0  0  0  0  0  0
    5.1310    4.6474   -0.5119 C   0  0  0  0  0  0  0  0  0  0  0  0
    6.6584    2.7271    0.1134 C   0  0  0  0  0  0  0  0  0  0  0  0
    6.9048    1.3625    0.2865 C   0  0  0  0  0  0  0  0  0  0  0  0
    5.9292    0.3994    0.0068 C   0  0  0  0  0  0  0  0  0  0  0  0
    6.1967   -0.9845    0.1058 N   0  0  0  0  0  0  0  0  0  0  0  0
    5.4675   -1.8209    1.0486 C   0  0  0  0  0  0  0  0  0  0  0  0
    4.9805   -3.1533    0.4690 C   0  0  0  0  0  0  0  0  0  0  0  0
    4.7848   -4.1199    1.1948 O   0  0  0  0  0  0  0  0  0  0  0  0
    4.7546   -3.1273   -0.8777 N   0  0  0  0  0  0  0  0  0  0  0  0
    4.1623   -4.1093   -1.7139 C   0  0  0  0  0  0  0  0  0  0  0  0
    3.8972   -3.8221   -2.8703 O   0  0  0  0  0  0  0  0  0  0  0  0
    3.9446   -5.3059   -1.1177 N   0  0  0  0  0  0  0  0  0  0  0  0
    3.3095   -6.4161   -1.8046 C   0  0  0  0  0  0  0  0  0  0  0  0
    1.8620   -6.7018   -1.3520 C   0  0  1  0  0  0  0  0  0  0  0  0
    1.7948   -7.0969    0.1290 C   0  0  0  0  0  0  0  0  0  0  0  0
    0.9189   -5.5351   -1.6677 C   0  0  0  0  0  0  0  0  0  0  0  0
    0.8112   -0.8370   -2.1518 H   0  0  0  0  0  0  0  0  0  0  0  0
    1.5619   -1.6335   -0.7452 H   0  0  0  0  0  0  0  0  0  0  0  0
    2.3449   -1.7329   -2.3463 H   0  0  0  0  0  0  0  0  0  0  0  0
    1.9430    0.8555   -0.6962 H   0  0  0  0  0  0  0  0  0  0  0  0
    2.7202    0.7733   -2.2991 H   0  0  0  0  0  0  0  0  0  0  0  0
    3.4460    2.5533   -0.9646 H   0  0  0  0  0  0  0  0  0  0  0  0
    4.0731    4.8367   -0.7473 H   0  0  0  0  0  0  0  0  0  0  0  0
    5.7350    5.0686   -1.3338 H   0  0  0  0  0  0  0  0  0  0  0  0
    5.3812    5.2208    0.3958 H   0  0  0  0  0  0  0  0  0  0  0  0
    7.4485    3.4490    0.3372 H   0  0  0  0  0  0  0  0  0  0  0  0
    7.8825    1.0277    0.6461 H   0  0  0  0  0  0  0  0  0  0  0  0
    7.1940   -1.1723    0.1272 H   0  0  0  0  0  0  0  0  0  0  0  0
    4.5670   -1.2892    1.3920 H   0  0  0  0  0  0  0  0  0  0  0  0
    6.0514   -2.0691    1.9520 H   0  0  0  0  0  0  0  0  0  0  0  0
    4.9394   -2.2358   -1.3358 H   0  0  0  0  0  0  0  0  0  0  0  0
    4.1930   -5.3679   -0.1286 H   0  0  0  0  0  0  0  0  0  0  0  0
    3.9213   -7.3226   -1.6498 H   0  0  0  0  0  0  0  0  0  0  0  0
    3.3281   -6.1827   -2.8786 H   0  0  0  0  0  0  0  0  0  0  0  0
    1.5370   -7.5742   -1.9497 H   0  0  0  0  0  0  0  0  0  0  0  0
    2.1187   -6.2662    0.7788 H   0  0  0  0  0  0  0  0  0  0  0  0
    2.4385   -7.9654    0.3471 H   0  0  0  0  0  0  0  0  0  0  0  0
    0.7665   -7.3615    0.4236 H   0  0  0  0  0  0  0  0  0  0  0  0
    1.1928   -4.6380   -1.0882 H   0  0  0  0  0  0  0  0  0  0  0  0
   -0.1225   -5.7896   -1.4119 H   0  0  0  0  0  0  0  0  0  0  0  0
    0.9547   -5.2629   -2.7340 H   0  0  0  0  0  0  0  0  0  0  0  0
  1  2  1  0
  1 23  1  0
  1 24  1  0
  1 25  1  0
  2  3  1  0
  2 26  1  0
  2 27  1  0
  3  4  1  0
  4  5  2  0
  4 10  1  0
  5  6  1  0
  5 28  1  0
  6  7  1  0
  6  8  2  0
  7 29  1  0
  7 30  1  0
  7 31  1  0
  8  9  1  0
  8 32  1  0
  9 10  2  0
  9 33  1  0
 10 11  1  0
 11 12  1  0
 11 34  1  0
 12 13  1  0
 12 35  1  0
 12 36  1  0
 13 14  2  0
 13 15  1  0
 15 16  1  0
 15 37  1  0
 16 17  2  0
 16 18  1  0
 18 19  1  0
 18 38  1  0
 19 20  1  0
 19 39  1  0
 19 40  1  0
 20 21  1  0
 20 22  1  0
 20 41  1  6
 21 42  1  0
 21 43  1  0
 21 44  1  0
 22 45  1  0
 22 46  1  0
 22 47  1  0
M  END

