
     RDKit          3D

 53 56  0  0  0  0  0  0  0  0999 V2000
    6.1545   -7.0740    3.0346 C   0  0  0  0  0  0  0  0  0  0  0  0
    6.6910   -5.7127    2.6364 C   0  0  0  0  0  0  0  0  0  0  0  0
    5.6739   -5.0207    1.9276 O   0  0  0  0  0  0  0  0  0  0  0  0
    5.9105   -3.7567    1.4565 C   0  0  0  0  0  0  0  0  0  0  0  0
    7.1106   -3.0619    1.6103 C   0  0  0  0  0  0  0  0  0  0  0  0
    7.2418   -1.7693    1.0831 C   0  0  0  0  0  0  0  0  0  0  0  0
    6.1737   -1.1825    0.4095 C   0  0  0  0  0  0  0  0  0  0  0  0
    4.9636   -1.8700    0.2520 C   0  0  0  0  0  0  0  0  0  0  0  0
    4.8170   -3.1621    0.7708 C   0  0  0  0  0  0  0  0  0  0  0  0
    3.6626   -3.9534    0.6695 N   0  0  0  0  0  0  0  0  0  0  0  0
    2.4608   -3.6288    0.0720 C   0  0  0  0  0  0  0  0  0  0  0  0
    2.2115   -2.5215   -0.3822 O   0  0  0  0  0  0  0  0  0  0  0  0
    1.5325   -4.6661    0.0099 N   0  0  0  0  0  0  0  0  0  0  0  0
    0.1546   -4.3195   -0.3111 C   0  0  0  0  0  0  0  0  0  0  0  0
   -0.4713   -5.3576   -1.2333 C   0  0  0  0  0  0  0  0  0  0  0  0
   -0.3442   -6.6984   -0.6413 N   0  0  0  0  0  0  0  0  0  0  0  0
   -1.1180   -7.7173   -1.1862 C   0  0  0  0  0  0  0  0  0  0  0  0
   -0.6513   -8.7902   -1.7774 N   0  0  0  0  0  0  0  0  0  0  0  0
   -1.7664   -9.5380   -2.1089 C   0  0  0  0  0  0  0  0  0  0  0  0
   -1.8669  -10.7774   -2.7556 C   0  0  0  0  0  0  0  0  0  0  0  0
   -3.1400  -11.3051   -2.9777 C   0  0  0  0  0  0  0  0  0  0  0  0
   -4.3001  -10.6195   -2.5666 C   0  0  0  0  0  0  0  0  0  0  0  0
   -4.2231   -9.3807   -1.9231 C   0  0  0  0  0  0  0  0  0  0  0  0
   -2.9454   -8.8600   -1.7029 C   0  0  0  0  0  0  0  0  0  0  0  0
   -2.5044   -7.6926   -1.0926 N   0  0  0  0  0  0  0  0  0  0  0  0
   -3.3190   -6.7748   -0.3276 C   0  0  0  0  0  0  0  0  0  0  0  0
    1.0588   -7.0432   -0.4219 C   0  0  0  0  0  0  0  0  0  0  0  0
    1.7211   -6.0214    0.5054 C   0  0  0  0  0  0  0  0  0  0  0  0
    6.9211   -7.6357    3.5902 H   0  0  0  0  0  0  0  0  0  0  0  0
    5.8744   -7.6603    2.1457 H   0  0  0  0  0  0  0  0  0  0  0  0
    5.2670   -6.9722    3.6783 H   0  0  0  0  0  0  0  0  0  0  0  0
    7.5876   -5.8160    1.9972 H   0  0  0  0  0  0  0  0  0  0  0  0
    6.9863   -5.1305    3.5292 H   0  0  0  0  0  0  0  0  0  0  0  0
    7.9489   -3.5184    2.1367 H   0  0  0  0  0  0  0  0  0  0  0  0
    8.1847   -1.2316    1.2069 H   0  0  0  0  0  0  0  0  0  0  0  0
    6.2701   -0.1750   -0.0022 H   0  0  0  0  0  0  0  0  0  0  0  0
    4.1194   -1.4203   -0.2651 H   0  0  0  0  0  0  0  0  0  0  0  0
    3.7522   -4.8382    1.1516 H   0  0  0  0  0  0  0  0  0  0  0  0
    0.1611   -3.3308   -0.7855 H   0  0  0  0  0  0  0  0  0  0  0  0
   -0.4467   -4.2539    0.6186 H   0  0  0  0  0  0  0  0  0  0  0  0
    0.0289   -5.3286   -2.2229 H   0  0  0  0  0  0  0  0  0  0  0  0
   -1.5307   -5.1141   -1.3912 H   0  0  0  0  0  0  0  0  0  0  0  0
   -0.9645  -11.3047   -3.0724 H   0  0  0  0  0  0  0  0  0  0  0  0
   -3.2427  -12.2695   -3.4818 H   0  0  0  0  0  0  0  0  0  0  0  0
   -5.2808  -11.0624   -2.7572 H   0  0  0  0  0  0  0  0  0  0  0  0
   -5.1264   -8.8500   -1.6136 H   0  0  0  0  0  0  0  0  0  0  0  0
   -4.1099   -7.3327    0.1968 H   0  0  0  0  0  0  0  0  0  0  0  0
   -3.7983   -6.0077   -0.9601 H   0  0  0  0  0  0  0  0  0  0  0  0
   -2.6896   -6.2775    0.4232 H   0  0  0  0  0  0  0  0  0  0  0  0
    1.6087   -7.0824   -1.3828 H   0  0  0  0  0  0  0  0  0  0  0  0
    1.1133   -8.0462    0.0216 H   0  0  0  0  0  0  0  0  0  0  0  0
    2.7906   -6.2692    0.5424 H   0  0  0  0  0  0  0  0  0  0  0  0
    1.3068   -6.1309    1.5284 H   0  0  0  0  0  0  0  0  0  0  0  0
  1  2  1  0
  1 29  1  0
  1 30  1  0
  1 31  1  0
  2  3  1  0
  2 32  1  0
  2 33  1  0
  3  4  1  0
  4  5  2  0
  4  9  1  0
  5  6  1  0
  5 34  1  0
  6  7  2  0
  6 35  1  0
  7  8  1  0
  7 36  1  0
  8  9  2  0
  8 37  1  0
  9 10  1  0
 10 11  1  0
 10 38  1  0
 11 12  2  0
 11 13  1  0
 13 14  1  0
 13 28  1  0
 14 15  1  0
 14 39  1  0
 14 40  1  0
 15 16  1  0
 15 41  1  0
 15 42  1  0
 16 17  1  0
 16 27  1  0
 17 18  2  0
 17 25  1  0
 18 19  1  0
 19 20  2  0
 19 24  1  0
 20 21  1  0
 20 43  1  0
 21 22  2  0
 21 44  1  0
 22 23  1  0
 22 45  1  0
 23 24  2  0
 23 46  1  0
 24 25  1  0
 25 26  1  0
 26 47  1  0
 26 48  1  0
 26 49  1  0
 27 28  1  0
 27 50  1  0
 27 51  1  0
 28 52  1  0
 28 53  1  0
M  END

