
     RDKit          3D

 50 55  0  0  0  0  0  0  0  0999 V2000
    1.2099   -1.6981   -1.3006 N   0  0  0  0  0  0  0  0  0  0  0  0
    2.3037   -1.7012   -0.9088 C   0  0  0  0  0  0  0  0  0  0  0  0
    3.6587   -1.7004   -0.4323 C   0  0  0  0  0  0  0  0  0  0  0  0
    3.8597   -2.2710    0.8669 C   0  0  0  0  0  0  0  0  0  0  0  0
    4.0125   -2.7360    1.9210 N   0  0  0  0  0  0  0  0  0  0  0  0
    4.6494   -1.1696   -1.2241 C   0  0  0  0  0  0  0  0  0  0  0  0
    6.0751   -1.0288   -1.0234 C   0  0  0  0  0  0  0  0  0  0  0  0
    6.8126   -0.4167   -2.0806 C   0  0  0  0  0  0  0  0  0  0  0  0
    8.1837   -0.2196   -2.0183 C   0  0  0  0  0  0  0  0  0  0  0  0
    8.8499   -0.6475   -0.8602 C   0  0  0  0  0  0  0  0  0  0  0  0
    8.1459   -1.2657    0.2176 C   0  0  0  0  0  0  0  0  0  0  0  0
    6.7698   -1.4526    0.1338 C   0  0  0  0  0  0  0  0  0  0  0  0
    9.1364   -1.5767    1.2339 C   0  0  0  0  0  0  0  0  0  0  0  0
    9.0760   -2.1739    2.5009 C   0  0  0  0  0  0  0  0  0  0  0  0
   10.2541   -2.3192    3.2332 C   0  0  0  0  0  0  0  0  0  0  0  0
   11.4849   -1.8746    2.7140 C   0  0  0  0  0  0  0  0  0  0  0  0
   11.5712   -1.2759    1.4558 C   0  0  0  0  0  0  0  0  0  0  0  0
   10.3863   -1.1350    0.7275 C   0  0  0  0  0  0  0  0  0  0  0  0
   10.1924   -0.5743   -0.5433 N   0  0  0  0  0  0  0  0  0  0  0  0
   11.2173   -0.0229   -1.3743 C   0  0  0  0  0  0  0  0  0  0  0  0
   11.4762    1.3166   -1.3216 C   0  0  0  0  0  0  0  0  0  0  0  0
   12.4926    1.9171   -2.1355 C   0  0  0  0  0  0  0  0  0  0  0  0
   12.7424    3.3103   -2.0638 C   0  0  0  0  0  0  0  0  0  0  0  0
   13.7222    3.8969   -2.8435 C   0  0  0  0  0  0  0  0  0  0  0  0
   14.4826    3.0980   -3.7212 C   0  0  0  0  0  0  0  0  0  0  0  0
   14.2548    1.7340   -3.8066 C   0  0  0  0  0  0  0  0  0  0  0  0
   13.2590    1.1013   -3.0221 C   0  0  0  0  0  0  0  0  0  0  0  0
   12.9871   -0.3314   -3.0824 C   0  0  0  0  0  0  0  0  0  0  0  0
   13.7018   -1.2060   -3.9378 C   0  0  0  0  0  0  0  0  0  0  0  0
   13.4261   -2.5624   -3.9832 C   0  0  0  0  0  0  0  0  0  0  0  0
   12.4151   -3.1080   -3.1689 C   0  0  0  0  0  0  0  0  0  0  0  0
   11.6968   -2.2843   -2.3206 C   0  0  0  0  0  0  0  0  0  0  0  0
   11.9629   -0.8943   -2.2573 C   0  0  0  0  0  0  0  0  0  0  0  0
    4.2883   -0.7837   -2.1820 H   0  0  0  0  0  0  0  0  0  0  0  0
    6.2718   -0.0919   -2.9732 H   0  0  0  0  0  0  0  0  0  0  0  0
    8.7250    0.2513   -2.8402 H   0  0  0  0  0  0  0  0  0  0  0  0
    6.2413   -1.9243    0.9611 H   0  0  0  0  0  0  0  0  0  0  0  0
    8.1222   -2.5187    2.9078 H   0  0  0  0  0  0  0  0  0  0  0  0
   10.2236   -2.7827    4.2219 H   0  0  0  0  0  0  0  0  0  0  0  0
   12.3939   -1.9995    3.3078 H   0  0  0  0  0  0  0  0  0  0  0  0
   12.5260   -0.9308    1.0554 H   0  0  0  0  0  0  0  0  0  0  0  0
   10.8982    1.9480   -0.6430 H   0  0  0  0  0  0  0  0  0  0  0  0
   12.1447    3.9166   -1.3779 H   0  0  0  0  0  0  0  0  0  0  0  0
   13.9072    4.9719   -2.7809 H   0  0  0  0  0  0  0  0  0  0  0  0
   15.2582    3.5561   -4.3399 H   0  0  0  0  0  0  0  0  0  0  0  0
   14.8610    1.1455   -4.4956 H   0  0  0  0  0  0  0  0  0  0  0  0
   14.4891   -0.8109   -4.5800 H   0  0  0  0  0  0  0  0  0  0  0  0
   13.9961   -3.2095   -4.6543 H   0  0  0  0  0  0  0  0  0  0  0  0
   12.1979   -4.1781   -3.2058 H   0  0  0  0  0  0  0  0  0  0  0  0
   10.9135   -2.7036   -1.6875 H   0  0  0  0  0  0  0  0  0  0  0  0
  1  2  3  0
  2  3  1  0
  3  4  1  0
  3  6  2  0
  4  5  3  0
  6  7  1  0
  6 34  1  0
  7  8  2  0
  7 12  1  0
  8  9  1  0
  8 35  1  0
  9 10  2  0
  9 36  1  0
 10 11  1  0
 10 19  1  0
 11 12  2  0
 11 13  1  0
 12 37  1  0
 13 14  2  0
 13 18  1  0
 14 15  1  0
 14 38  1  0
 15 16  2  0
 15 39  1  0
 16 17  1  0
 16 40  1  0
 17 18  2  0
 17 41  1  0
 18 19  1  0
 19 20  1  0
 20 21  2  0
 20 33  1  0
 21 22  1  0
 21 42  1  0
 22 23  2  0
 22 27  1  0
 23 24  1  0
 23 43  1  0
 24 25  2  0
 24 44  1  0
 25 26  1  0
 25 45  1  0
 26 27  2  0
 26 46  1  0
 27 28  1  0
 28 29  1  0
 28 33  2  0
 29 30  2  0
 29 47  1  0
 30 31  1  0
 30 48  1  0
 31 32  2  0
 31 49  1  0
 32 33  1  0
 32 50  1  0
M  END

