
     RDKit          3D

 38 41  0  0  0  0  0  0  0  0999 V2000
    2.6906    1.8093    2.4499 N   0  0  0  0  0  0  0  0  0  0  0  0
    2.9994    0.8825    1.6113 C   0  0  0  0  0  0  0  0  0  0  0  0
    3.5646   -0.4583    1.9114 C   0  0  0  0  0  0  0  0  0  0  0  0
    3.7623   -0.8514    3.2479 C   0  0  0  0  0  0  0  0  0  0  0  0
    4.2957   -2.0938    3.5679 C   0  0  0  0  0  0  0  0  0  0  0  0
    4.6502   -2.9800    2.5399 C   0  0  0  0  0  0  0  0  0  0  0  0
    4.4644   -2.6193    1.2122 C   0  0  0  0  0  0  0  0  0  0  0  0
    3.9195   -1.3631    0.8692 C   0  0  0  0  0  0  0  0  0  0  0  0
    3.6968   -0.9369   -0.4971 C   0  0  0  0  0  0  0  0  0  0  0  0
    4.1663   -2.0536   -1.9695 Br  0  0  0  0  0  0  0  0  0  0  0  0
    3.1426    0.2722   -0.7573 C   0  0  0  0  0  0  0  0  0  0  0  0
    2.7799    1.1464    0.2464 N   0  0  0  0  0  0  0  0  0  0  0  0
    2.1329    2.4019   -0.1197 C   0  0  0  0  0  0  0  0  0  0  0  0
    3.0552    3.5083   -0.3763 N   0  0  0  0  0  0  0  0  0  0  0  0
    3.4242    4.3464    0.6605 C   0  0  0  0  0  0  0  0  0  0  0  0
    4.2356    5.4159    0.4598 C   0  0  0  0  0  0  0  0  0  0  0  0
    4.6884    6.4999    1.9623 Br  0  0  0  0  0  0  0  0  0  0  0  0
    4.7454    5.7200   -0.8594 C   0  0  0  0  0  0  0  0  0  0  0  0
    5.5837    6.8171   -1.1567 C   0  0  0  0  0  0  0  0  0  0  0  0
    6.0290    7.0352   -2.4537 C   0  0  0  0  0  0  0  0  0  0  0  0
    5.6566    6.1689   -3.4973 C   0  0  0  0  0  0  0  0  0  0  0  0
    4.8355    5.0835   -3.2269 C   0  0  0  0  0  0  0  0  0  0  0  0
    4.3732    4.8464   -1.9190 C   0  0  0  0  0  0  0  0  0  0  0  0
    3.5040    3.6773   -1.6946 C   0  0  0  0  0  0  0  0  0  0  0  0
    3.1689    2.8900   -2.5736 O   0  0  0  0  0  0  0  0  0  0  0  0
    2.8609    1.5254    3.4121 H   0  0  0  0  0  0  0  0  0  0  0  0
    3.4909   -0.1707    4.0575 H   0  0  0  0  0  0  0  0  0  0  0  0
    4.4375   -2.3748    4.6139 H   0  0  0  0  0  0  0  0  0  0  0  0
    5.0732   -3.9584    2.7812 H   0  0  0  0  0  0  0  0  0  0  0  0
    4.7381   -3.3081    0.4121 H   0  0  0  0  0  0  0  0  0  0  0  0
    2.9781    0.6417   -1.7699 H   0  0  0  0  0  0  0  0  0  0  0  0
    1.4728    2.6838    0.7061 H   0  0  0  0  0  0  0  0  0  0  0  0
    1.5661    2.2400   -1.0419 H   0  0  0  0  0  0  0  0  0  0  0  0
    3.0441    4.0540    1.6400 H   0  0  0  0  0  0  0  0  0  0  0  0
    5.8771    7.4925   -0.3519 H   0  0  0  0  0  0  0  0  0  0  0  0
    6.6768    7.8905   -2.6623 H   0  0  0  0  0  0  0  0  0  0  0  0
    6.0130    6.3499   -4.5141 H   0  0  0  0  0  0  0  0  0  0  0  0
    4.5265    4.3876   -4.0089 H   0  0  0  0  0  0  0  0  0  0  0  0
  1  2  2  0
  1 26  1  0
  2  3  1  0
  2 12  1  0
  3  4  2  0
  3  8  1  0
  4  5  1  0
  4 27  1  0
  5  6  2  0
  5 28  1  0
  6  7  1  0
  6 29  1  0
  7  8  2  0
  7 30  1  0
  8  9  1  0
  9 10  1  0
  9 11  2  0
 11 12  1  0
 11 31  1  0
 12 13  1  0
 13 14  1  0
 13 32  1  0
 13 33  1  0
 14 15  1  0
 14 24  1  0
 15 16  2  0
 15 34  1  0
 16 17  1  0
 16 18  1  0
 18 19  2  0
 18 23  1  0
 19 20  1  0
 19 35  1  0
 20 21  2  0
 20 36  1  0
 21 22  1  0
 21 37  1  0
 22 23  2  0
 22 38  1  0
 23 24  1  0
 24 25  2  0
M  END

