
     RDKit          3D

 47 48  0  0  0  0  0  0  0  0999 V2000
    1.4535   -3.1418   -6.2171 C   0  0  0  0  0  0  0  0  0  0  0  0
    2.1789   -3.3782   -4.9028 C   0  0  0  0  0  0  0  0  0  0  0  0
    2.9874   -2.2472   -4.5295 O   0  0  0  0  0  0  0  0  0  0  0  0
    4.2325   -2.1747   -5.0357 C   0  0  0  0  0  0  0  0  0  0  0  0
    4.7126   -3.0160   -5.7594 O   0  0  0  0  0  0  0  0  0  0  0  0
    4.9236   -0.9013   -4.5991 C   0  0  0  0  0  0  0  0  0  0  0  0
    6.4298   -0.9465   -4.8258 C   0  0  0  0  0  0  0  0  0  0  0  0
    7.0693    0.4344   -4.6840 C   0  0  0  0  0  0  0  0  0  0  0  0
    6.3834    1.4272   -4.4834 O   0  0  0  0  0  0  0  0  0  0  0  0
    8.4392    0.5119   -4.7968 N   0  0  0  0  0  0  0  0  0  0  0  0
    9.3480   -0.6008   -5.0609 C   0  0  0  0  0  0  0  0  0  0  0  0
   10.2084   -0.3287   -6.2993 C   0  0  0  0  0  0  0  0  0  0  0  0
   10.9544    1.0163   -6.2003 C   0  0  2  0  0  0  0  0  0  0  0  0
   12.0244    0.9705   -5.1998 N   0  0  0  0  0  0  0  0  0  0  0  0
   13.2186    0.3591   -5.4604 C   0  0  0  0  0  0  0  0  0  0  0  0
   13.4398   -0.2185   -6.5155 O   0  0  0  0  0  0  0  0  0  0  0  0
   14.2644    0.4352   -4.3780 C   0  0  0  0  0  0  0  0  0  0  0  0
   15.5954    0.1679   -4.7282 C   0  0  0  0  0  0  0  0  0  0  0  0
   16.5773    0.2259   -3.7427 C   0  0  0  0  0  0  0  0  0  0  0  0
   16.1912    0.5383   -2.4335 C   0  0  0  0  0  0  0  0  0  0  0  0
   14.9253    0.7700   -2.0785 N   0  0  0  0  0  0  0  0  0  0  0  0
   13.9920    0.7152   -3.0293 C   0  0  0  0  0  0  0  0  0  0  0  0
    9.9619    2.1392   -5.8646 C   0  0  0  0  0  0  0  0  0  0  0  0
    9.0915    1.8084   -4.6453 C   0  0  0  0  0  0  0  0  0  0  0  0
    0.7833   -3.9892   -6.4338 H   0  0  0  0  0  0  0  0  0  0  0  0
    2.1694   -3.0524   -7.0476 H   0  0  0  0  0  0  0  0  0  0  0  0
    0.8454   -2.2248   -6.1720 H   0  0  0  0  0  0  0  0  0  0  0  0
    2.8192   -4.2708   -4.9626 H   0  0  0  0  0  0  0  0  0  0  0  0
    1.4689   -3.4999   -4.0718 H   0  0  0  0  0  0  0  0  0  0  0  0
    4.6687   -0.6922   -3.5496 H   0  0  0  0  0  0  0  0  0  0  0  0
    4.4818   -0.0653   -5.1666 H   0  0  0  0  0  0  0  0  0  0  0  0
    6.6326   -1.3553   -5.8294 H   0  0  0  0  0  0  0  0  0  0  0  0
    6.8994   -1.6531   -4.1215 H   0  0  0  0  0  0  0  0  0  0  0  0
    8.7826   -1.5292   -5.1941 H   0  0  0  0  0  0  0  0  0  0  0  0
   10.0053   -0.7495   -4.1822 H   0  0  0  0  0  0  0  0  0  0  0  0
    9.5610   -0.3014   -7.1922 H   0  0  0  0  0  0  0  0  0  0  0  0
   10.9372   -1.1390   -6.4488 H   0  0  0  0  0  0  0  0  0  0  0  0
   11.4321    1.2138   -7.1734 H   0  0  0  0  0  0  0  0  0  0  0  0
   11.9527    1.5666   -4.3850 H   0  0  0  0  0  0  0  0  0  0  0  0
   15.8241   -0.0814   -5.7666 H   0  0  0  0  0  0  0  0  0  0  0  0
   17.6264    0.0317   -3.9772 H   0  0  0  0  0  0  0  0  0  0  0  0
   16.9410    0.5974   -1.6356 H   0  0  0  0  0  0  0  0  0  0  0  0
   12.9614    0.8795   -2.6901 H   0  0  0  0  0  0  0  0  0  0  0  0
    9.3062    2.2902   -6.7371 H   0  0  0  0  0  0  0  0  0  0  0  0
   10.4981    3.0895   -5.7001 H   0  0  0  0  0  0  0  0  0  0  0  0
    8.3043    2.5586   -4.5041 H   0  0  0  0  0  0  0  0  0  0  0  0
    9.7043    1.7987   -3.7213 H   0  0  0  0  0  0  0  0  0  0  0  0
  1  2  1  0
  1 25  1  0
  1 26  1  0
  1 27  1  0
  2  3  1  0
  2 28  1  0
  2 29  1  0
  3  4  1  0
  4  5  2  0
  4  6  1  0
  6  7  1  0
  6 30  1  0
  6 31  1  0
  7  8  1  0
  7 32  1  0
  7 33  1  0
  8  9  2  0
  8 10  1  0
 10 11  1  0
 10 24  1  0
 11 12  1  0
 11 34  1  0
 11 35  1  0
 12 13  1  0
 12 36  1  0
 12 37  1  0
 13 14  1  0
 13 23  1  0
 13 38  1  6
 14 15  1  0
 14 39  1  0
 15 16  2  0
 15 17  1  0
 17 18  2  0
 17 22  1  0
 18 19  1  0
 18 40  1  0
 19 20  2  0
 19 41  1  0
 20 21  1  0
 20 42  1  0
 21 22  2  0
 22 43  1  0
 23 24  1  0
 23 44  1  0
 23 45  1  0
 24 46  1  0
 24 47  1  0
M  END

