
     RDKit          3D

 43 44  0  0  0  0  0  0  0  0999 V2000
    1.2313    0.4552    0.6667 C   0  0  0  0  0  0  0  0  0  0  0  0
    2.5912    0.1098    0.2962 N   0  0  0  0  0  0  0  0  0  0  0  0
    3.0831    0.6704   -0.9552 C   0  0  0  0  0  0  0  0  0  0  0  0
    3.4676    2.1399   -0.8904 C   0  0  0  0  0  0  0  0  0  0  0  0
    2.5753    3.1583   -1.2590 C   0  0  0  0  0  0  0  0  0  0  0  0
    2.9153    4.5108   -1.1766 C   0  0  0  0  0  0  0  0  0  0  0  0
    4.1849    4.8521   -0.7164 C   0  0  0  0  0  0  0  0  0  0  0  0
    4.5302    6.1406   -0.6311 F   0  0  0  0  0  0  0  0  0  0  0  0
    5.1149    3.8821   -0.3465 C   0  0  0  0  0  0  0  0  0  0  0  0
    4.7287    2.5503   -0.4436 C   0  0  0  0  0  0  0  0  0  0  0  0
    5.6373    1.6091   -0.0996 F   0  0  0  0  0  0  0  0  0  0  0  0
    3.2259   -0.9068    1.0086 C   0  0  0  0  0  0  0  0  0  0  0  0
    2.6431   -1.5578    1.8649 O   0  0  0  0  0  0  0  0  0  0  0  0
    4.5502   -1.1419    0.6818 N   0  0  0  0  0  0  0  0  0  0  0  0
    5.3180   -2.1091    1.4782 C   0  0  1  0  0  0  0  0  0  0  0  0
    4.9602   -3.5583    1.0967 C   0  0  0  0  0  0  0  0  0  0  0  0
    5.4348   -3.9146   -0.3155 C   0  0  0  0  0  0  0  0  0  0  0  0
    6.9534   -3.6867   -0.4969 C   0  0  2  0  0  0  0  0  0  0  0  0
    7.8193   -4.7015    0.2650 C   0  0  0  0  0  0  0  0  0  0  0  0
    8.7650   -4.4131    0.9478 O   0  0  0  0  0  0  0  0  0  0  0  0
    7.4816   -6.0018    0.0984 O   0  0  0  0  0  0  0  0  0  0  0  0
    7.3273   -2.2440   -0.1163 C   0  0  0  0  0  0  0  0  0  0  0  0
    6.8217   -1.8605    1.2837 C   0  0  0  0  0  0  0  0  0  0  0  0
    1.1270    1.5434    0.8160 H   0  0  0  0  0  0  0  0  0  0  0  0
    0.9807   -0.0642    1.5983 H   0  0  0  0  0  0  0  0  0  0  0  0
    0.5106    0.1444   -0.1139 H   0  0  0  0  0  0  0  0  0  0  0  0
    2.2927    0.5618   -1.7207 H   0  0  0  0  0  0  0  0  0  0  0  0
    3.9340    0.0706   -1.3022 H   0  0  0  0  0  0  0  0  0  0  0  0
    1.5849    2.8803   -1.6292 H   0  0  0  0  0  0  0  0  0  0  0  0
    2.2170    5.2983   -1.4642 H   0  0  0  0  0  0  0  0  0  0  0  0
    6.1111    4.1554    0.0024 H   0  0  0  0  0  0  0  0  0  0  0  0
    5.0794   -0.3435    0.3500 H   0  0  0  0  0  0  0  0  0  0  0  0
    5.0584   -1.9689    2.5412 H   0  0  0  0  0  0  0  0  0  0  0  0
    3.8733   -3.6941    1.1921 H   0  0  0  0  0  0  0  0  0  0  0  0
    5.4291   -4.2342    1.8337 H   0  0  0  0  0  0  0  0  0  0  0  0
    4.9068   -3.2802   -1.0459 H   0  0  0  0  0  0  0  0  0  0  0  0
    5.1413   -4.9505   -0.5658 H   0  0  0  0  0  0  0  0  0  0  0  0
    7.2035   -3.8486   -1.5631 H   0  0  0  0  0  0  0  0  0  0  0  0
    6.6983   -6.0764   -0.4650 H   0  0  0  0  0  0  0  0  0  0  0  0
    6.8989   -1.5660   -0.8738 H   0  0  0  0  0  0  0  0  0  0  0  0
    8.4196   -2.1245   -0.1585 H   0  0  0  0  0  0  0  0  0  0  0  0
    7.0578   -0.8030    1.4946 H   0  0  0  0  0  0  0  0  0  0  0  0
    7.3683   -2.4547    2.0317 H   0  0  0  0  0  0  0  0  0  0  0  0
  1  2  1  0
  1 24  1  0
  1 25  1  0
  1 26  1  0
  2  3  1  0
  2 12  1  0
  3  4  1  0
  3 27  1  0
  3 28  1  0
  4  5  2  0
  4 10  1  0
  5  6  1  0
  5 29  1  0
  6  7  2  0
  6 30  1  0
  7  8  1  0
  7  9  1  0
  9 10  2  0
  9 31  1  0
 10 11  1  0
 12 13  2  0
 12 14  1  0
 14 15  1  0
 14 32  1  0
 15 16  1  0
 15 23  1  0
 15 33  1  1
 16 17  1  0
 16 34  1  0
 16 35  1  0
 17 18  1  0
 17 36  1  0
 17 37  1  0
 18 19  1  0
 18 22  1  0
 18 38  1  6
 19 20  2  0
 19 21  1  0
 21 39  1  0
 22 23  1  0
 22 40  1  0
 22 41  1  0
 23 42  1  0
 23 43  1  0
M  END

