
     RDKit          3D

 63 67  0  0  0  0  0  0  0  0999 V2000
    0.4003   -0.2956   -0.7996 O   0  0  0  0  0  0  0  0  0  0  0  0
    1.5050   -0.8179   -0.8414 C   0  0  0  0  0  0  0  0  0  0  0  0
    2.4011   -0.5532   -2.0266 C   0  0  0  0  0  0  0  0  0  0  0  0
    2.4882    0.7623   -2.5085 C   0  0  0  0  0  0  0  0  0  0  0  0
    3.2300    1.0478   -3.6490 C   0  0  0  0  0  0  0  0  0  0  0  0
    3.8906    0.0286   -4.3727 C   0  0  0  0  0  0  0  0  0  0  0  0
    4.6445    0.4171   -5.5573 C   0  0  0  0  0  0  0  0  0  0  0  0
    5.3973   -0.3024   -6.4237 C   0  0  0  0  0  0  0  0  0  0  0  0
    5.7622   -2.0311   -6.4491 S   0  0  0  0  0  0  0  0  0  0  0  0
    6.7835   -1.8496   -7.9321 C   0  0  0  0  0  0  0  0  0  0  0  0
    7.3546   -2.7631   -8.4683 O   0  0  0  0  0  0  0  0  0  0  0  0
    6.7999   -0.5242   -8.3340 N   0  0  0  0  0  0  0  0  0  0  0  0
    7.5399   -0.1016   -9.5305 C   0  0  0  0  0  0  0  0  0  0  0  0
    8.9430    0.3970   -9.2363 C   0  0  0  0  0  0  0  0  0  0  0  0
    9.8885   -0.4792   -8.6734 C   0  0  0  0  0  0  0  0  0  0  0  0
   11.1868   -0.0640   -8.3797 C   0  0  0  0  0  0  0  0  0  0  0  0
   11.5731    1.2511   -8.6557 C   0  0  0  0  0  0  0  0  0  0  0  0
   10.6623    2.1371   -9.2295 C   0  0  0  0  0  0  0  0  0  0  0  0
    9.3601    1.7105   -9.5176 C   0  0  0  0  0  0  0  0  0  0  0  0
    8.2773    2.8695  -10.2647 Cl  0  0  0  0  0  0  0  0  0  0  0  0
    6.0647    0.3901   -7.5704 C   0  0  0  0  0  0  0  0  0  0  0  0
    5.9902    1.5695   -7.8293 O   0  0  0  0  0  0  0  0  0  0  0  0
    3.7645   -1.2962   -3.9010 C   0  0  0  0  0  0  0  0  0  0  0  0
    3.0367   -1.5780   -2.7471 C   0  0  0  0  0  0  0  0  0  0  0  0
    1.9472   -1.6803    0.1381 N   0  0  0  0  0  0  0  0  0  0  0  0
    1.0270   -2.0247    1.2239 C   0  0  0  0  0  0  0  0  0  0  0  0
    1.2121   -3.4979    1.6151 C   0  0  0  0  0  0  0  0  0  0  0  0
    2.5959   -3.8479    1.9346 N   0  0  0  0  0  0  0  0  0  0  0  0
    3.0308   -3.5045    3.2828 C   0  0  0  0  0  0  0  0  0  0  0  0
    2.3920   -4.3720    4.3547 C   0  0  0  0  0  0  0  0  0  0  0  0
    2.2131   -5.7490    4.1505 C   0  0  0  0  0  0  0  0  0  0  0  0
    1.6755   -6.5623    5.1486 C   0  0  0  0  0  0  0  0  0  0  0  0
    1.3093   -5.9948    6.3737 C   0  0  0  0  0  0  0  0  0  0  0  0
    0.6333   -7.0078    7.6304 Cl  0  0  0  0  0  0  0  0  0  0  0  0
    1.4728   -4.6265    6.6004 C   0  0  0  0  0  0  0  0  0  0  0  0
    2.0094   -3.8265    5.5876 C   0  0  0  0  0  0  0  0  0  0  0  0
    3.4908   -3.4526    0.8551 C   0  0  0  0  0  0  0  0  0  0  0  0
    3.3461   -1.9782    0.4450 C   0  0  0  0  0  0  0  0  0  0  0  0
    1.9576    1.5556   -1.9785 H   0  0  0  0  0  0  0  0  0  0  0  0
    3.3003    2.0794   -4.0035 H   0  0  0  0  0  0  0  0  0  0  0  0
    4.6133    1.4831   -5.8080 H   0  0  0  0  0  0  0  0  0  0  0  0
    6.9492    0.6850  -10.0130 H   0  0  0  0  0  0  0  0  0  0  0  0
    7.5841   -0.9787  -10.1914 H   0  0  0  0  0  0  0  0  0  0  0  0
    9.5892   -1.5112   -8.4746 H   0  0  0  0  0  0  0  0  0  0  0  0
   11.8980   -0.7684   -7.9423 H   0  0  0  0  0  0  0  0  0  0  0  0
   12.5876    1.5898   -8.4315 H   0  0  0  0  0  0  0  0  0  0  0  0
   10.9474    3.1646   -9.4605 H   0  0  0  0  0  0  0  0  0  0  0  0
    4.2274   -2.1238   -4.4394 H   0  0  0  0  0  0  0  0  0  0  0  0
    2.9397   -2.6149   -2.4174 H   0  0  0  0  0  0  0  0  0  0  0  0
    0.0041   -1.8253    0.8813 H   0  0  0  0  0  0  0  0  0  0  0  0
    1.2110   -1.3631    2.0930 H   0  0  0  0  0  0  0  0  0  0  0  0
    0.8814   -4.1276    0.7699 H   0  0  0  0  0  0  0  0  0  0  0  0
    0.5681   -3.7419    2.4734 H   0  0  0  0  0  0  0  0  0  0  0  0
    2.8695   -2.4383    3.5529 H   0  0  0  0  0  0  0  0  0  0  0  0
    4.1245   -3.6561    3.3180 H   0  0  0  0  0  0  0  0  0  0  0  0
    2.4924   -6.1786    3.1858 H   0  0  0  0  0  0  0  0  0  0  0  0
    1.5377   -7.6326    4.9851 H   0  0  0  0  0  0  0  0  0  0  0  0
    1.1758   -4.1945    7.5575 H   0  0  0  0  0  0  0  0  0  0  0  0
    2.1303   -2.7538    5.7660 H   0  0  0  0  0  0  0  0  0  0  0  0
    3.2690   -4.0818   -0.0267 H   0  0  0  0  0  0  0  0  0  0  0  0
    4.5326   -3.6568    1.1494 H   0  0  0  0  0  0  0  0  0  0  0  0
    3.9842   -1.7521   -0.4172 H   0  0  0  0  0  0  0  0  0  0  0  0
    3.6826   -1.3254    1.2755 H   0  0  0  0  0  0  0  0  0  0  0  0
  1  2  2  0
  2  3  1  0
  2 25  1  0
  3  4  2  0
  3 24  1  0
  4  5  1  0
  4 39  1  0
  5  6  2  0
  5 40  1  0
  6  7  1  0
  6 23  1  0
  7  8  2  0
  7 41  1  0
  8  9  1  0
  8 21  1  0
  9 10  2  0
 10 11  1  0
 10 12  1  0
 12 13  1  0
 12 21  1  0
 13 14  1  0
 13 42  1  0
 13 43  1  0
 14 15  2  0
 14 19  1  0
 15 16  1  0
 15 44  1  0
 16 17  2  0
 16 45  1  0
 17 18  1  0
 17 46  1  0
 18 19  2  0
 18 47  1  0
 19 20  1  0
 21 22  2  0
 23 24  2  0
 23 48  1  0
 24 49  1  0
 25 26  1  0
 25 38  1  0
 26 27  1  0
 26 50  1  0
 26 51  1  0
 27 28  1  0
 27 52  1  0
 27 53  1  0
 28 29  1  0
 28 37  1  0
 29 30  1  0
 29 54  1  0
 29 55  1  0
 30 31  2  0
 30 36  1  0
 31 32  1  0
 31 56  1  0
 32 33  2  0
 32 57  1  0
 33 34  1  0
 33 35  1  0
 35 36  2  0
 35 58  1  0
 36 59  1  0
 37 38  1  0
 37 60  1  0
 37 61  1  0
 38 62  1  0
 38 63  1  0
M  CHG  2   9   1  11  -1
M  END

