
     RDKit          3D

 33 34  0  0  0  0  0  0  0  0999 V2000
    1.2657    1.0894   -0.5276 C   0  0  0  0  0  0  0  0  0  0  0  0
    2.2612    0.0635    0.0426 C   0  0  1  0  0  0  0  0  0  0  0  0
    1.4612   -1.2148    0.3556 C   0  0  0  0  0  0  0  0  0  0  0  0
    3.3618   -0.2034   -0.9986 C   0  0  0  0  0  0  0  0  0  0  0  0
    2.9109    0.5902    1.3015 N   0  0  0  0  0  0  0  0  0  0  0  0
    3.1199    1.9053    1.6881 C   0  0  0  0  0  0  0  0  0  0  0  0
    2.8638    3.1856    0.9421 C   0  0  0  0  0  0  0  0  0  0  0  0
    3.5373    3.2704   -0.3029 O   0  0  0  0  0  0  0  0  0  0  0  0
    3.7059    1.9491    2.8660 N   0  0  0  0  0  0  0  0  0  0  0  0
    3.9051    0.6827    3.2918 N   0  0  0  0  0  0  0  0  0  0  0  0
    3.4598   -0.1309    2.3560 C   0  0  0  0  0  0  0  0  0  0  0  0
    3.6132   -1.5860    2.5155 C   0  0  0  0  0  0  0  0  0  0  0  0
    4.4293   -2.4670    1.8259 C   0  0  0  0  0  0  0  0  0  0  0  0
    4.3853   -3.7866    2.3400 C   0  0  0  0  0  0  0  0  0  0  0  0
    3.5381   -3.8722    3.4203 C   0  0  0  0  0  0  0  0  0  0  0  0
    3.2603   -5.0572    4.1961 N   0  0  0  0  0  0  0  0  0  0  0  0
    3.8112   -6.0927    3.8560 O   0  0  0  0  0  0  0  0  0  0  0  0
    2.4866   -4.9318    5.1365 O   0  0  0  0  0  0  0  0  0  0  0  0
    2.7962   -2.3657    3.8381 S   0  0  0  0  0  0  0  0  0  0  0  0
    0.7175    0.6084   -1.3505 H   0  0  0  0  0  0  0  0  0  0  0  0
    1.7701    1.9692   -0.9417 H   0  0  0  0  0  0  0  0  0  0  0  0
    0.5261    1.3978    0.2267 H   0  0  0  0  0  0  0  0  0  0  0  0
    0.8966   -1.5014   -0.5436 H   0  0  0  0  0  0  0  0  0  0  0  0
    0.7383   -1.0403    1.1671 H   0  0  0  0  0  0  0  0  0  0  0  0
    2.0939   -2.0651    0.6299 H   0  0  0  0  0  0  0  0  0  0  0  0
    2.9129   -0.5630   -1.9373 H   0  0  0  0  0  0  0  0  0  0  0  0
    4.0728   -0.9662   -0.6511 H   0  0  0  0  0  0  0  0  0  0  0  0
    3.9092    0.7261   -1.2112 H   0  0  0  0  0  0  0  0  0  0  0  0
    3.1758    3.9811    1.6391 H   0  0  0  0  0  0  0  0  0  0  0  0
    1.7977    3.3367    0.7300 H   0  0  0  0  0  0  0  0  0  0  0  0
    4.4877    3.3085   -0.1287 H   0  0  0  0  0  0  0  0  0  0  0  0
    5.0585   -2.1644    0.9889 H   0  0  0  0  0  0  0  0  0  0  0  0
    4.9456   -4.6413    1.9636 H   0  0  0  0  0  0  0  0  0  0  0  0
  2  1  1  6
  1 20  1  0
  1 21  1  0
  1 22  1  0
  2  3  1  0
  2  4  1  0
  2  5  1  0
  3 23  1  0
  3 24  1  0
  3 25  1  0
  4 26  1  0
  4 27  1  0
  4 28  1  0
  5  6  1  0
  5 11  1  0
  6  7  1  0
  6  9  2  0
  7  8  1  0
  7 29  1  0
  7 30  1  0
  8 31  1  0
  9 10  1  0
 10 11  2  0
 11 12  1  0
 12 13  2  0
 12 19  1  0
 13 14  1  0
 13 32  1  0
 14 15  2  0
 14 33  1  0
 15 16  1  0
 15 19  1  0
 16 17  2  0
 16 18  1  0
M  CHG  2  16   1  18  -1
M  END

