
     RDKit          3D

 43 44  0  0  0  0  0  0  0  0999 V2000
    5.8129   -2.6232   -1.7228 C   0  0  0  0  0  0  0  0  0  0  0  0
    5.7179   -1.3948   -0.8168 C   0  0  1  0  0  0  0  0  0  0  0  0
    7.0411   -1.0992   -0.1147 C   0  0  0  0  0  0  0  0  0  0  0  0
    5.2916   -0.2491   -1.6660 N   0  0  0  0  0  0  0  0  0  0  0  0
    4.4589    1.0486   -0.9693 S   0  0  1  0  0  0  0  0  0  0  0  0
    3.1341    1.1285   -1.5946 O   0  0  0  0  0  0  0  0  0  0  0  0
    4.6114    0.9667    0.4886 O   0  0  0  0  0  0  0  0  0  0  0  0
    5.3697    2.5038   -1.5660 C   0  0  1  0  0  0  0  0  0  0  0  0
    4.6999    3.8049   -1.0992 C   0  0  0  0  0  0  0  0  0  0  0  0
    5.8195    4.8342   -1.2739 C   0  0  0  0  0  0  0  0  0  0  0  0
    7.0429    4.0621   -1.0249 N   0  0  0  0  0  0  0  0  0  0  0  0
    8.1962    4.7032   -0.6750 C   0  0  0  0  0  0  0  0  0  0  0  0
    8.2577    5.9241   -0.6161 O   0  0  0  0  0  0  0  0  0  0  0  0
    9.4124    3.8470   -0.3135 C   0  0  0  0  0  0  0  0  0  0  0  0
    9.6338    3.8311    1.1735 C   0  0  0  0  0  0  0  0  0  0  0  0
    9.6958    4.9081    2.0485 C   0  0  0  0  0  0  0  0  0  0  0  0
    9.9092    4.4062    3.2934 N   0  0  0  0  0  0  0  0  0  0  0  0
   10.0359    5.1358    4.5381 C   0  0  0  0  0  0  0  0  0  0  0  0
    9.9897    3.0664    3.3008 N   0  0  0  0  0  0  0  0  0  0  0  0
    9.8232    2.7197    2.0344 C   0  0  0  0  0  0  0  0  0  0  0  0
    9.8479    1.0520    1.5583 Cl  0  0  0  0  0  0  0  0  0  0  0  0
    6.8117    2.6130   -1.0531 C   0  0  0  0  0  0  0  0  0  0  0  0
    6.1148   -3.5037   -1.1362 H   0  0  0  0  0  0  0  0  0  0  0  0
    6.5614   -2.4702   -2.5176 H   0  0  0  0  0  0  0  0  0  0  0  0
    4.8436   -2.8528   -2.1957 H   0  0  0  0  0  0  0  0  0  0  0  0
    4.9505   -1.5864   -0.0465 H   0  0  0  0  0  0  0  0  0  0  0  0
    7.8379   -0.8987   -0.8492 H   0  0  0  0  0  0  0  0  0  0  0  0
    7.3446   -1.9626    0.4982 H   0  0  0  0  0  0  0  0  0  0  0  0
    6.9517   -0.2343    0.5559 H   0  0  0  0  0  0  0  0  0  0  0  0
    4.7394   -0.5429   -2.4720 H   0  0  0  0  0  0  0  0  0  0  0  0
    5.3380    2.4128   -2.6627 H   0  0  0  0  0  0  0  0  0  0  0  0
    4.4295    3.7088   -0.0353 H   0  0  0  0  0  0  0  0  0  0  0  0
    3.7900    4.0394   -1.6664 H   0  0  0  0  0  0  0  0  0  0  0  0
    5.7586    5.6796   -0.5743 H   0  0  0  0  0  0  0  0  0  0  0  0
    5.8291    5.2587   -2.2944 H   0  0  0  0  0  0  0  0  0  0  0  0
   10.2696    4.3173   -0.8221 H   0  0  0  0  0  0  0  0  0  0  0  0
    9.3422    2.8134   -0.6751 H   0  0  0  0  0  0  0  0  0  0  0  0
    9.5890    5.9726    1.8515 H   0  0  0  0  0  0  0  0  0  0  0  0
    9.9617    6.2112    4.3301 H   0  0  0  0  0  0  0  0  0  0  0  0
   11.0083    4.9220    5.0066 H   0  0  0  0  0  0  0  0  0  0  0  0
    9.2360    4.8443    5.2355 H   0  0  0  0  0  0  0  0  0  0  0  0
    6.8976    2.1727   -0.0455 H   0  0  0  0  0  0  0  0  0  0  0  0
    7.5149    2.0900   -1.7177 H   0  0  0  0  0  0  0  0  0  0  0  0
  1  2  1  0
  1 23  1  0
  1 24  1  0
  1 25  1  0
  2  3  1  0
  2  4  1  0
  2 26  1  1
  3 27  1  0
  3 28  1  0
  3 29  1  0
  5  4  1  6
  4 30  1  0
  5  6  2  0
  5  7  2  0
  5  8  1  0
  8  9  1  0
  8 22  1  0
  8 31  1  6
  9 10  1  0
  9 32  1  0
  9 33  1  0
 10 11  1  0
 10 34  1  0
 10 35  1  0
 11 12  1  0
 11 22  1  0
 12 13  2  0
 12 14  1  0
 14 15  1  0
 14 36  1  0
 14 37  1  0
 15 16  2  0
 15 20  1  0
 16 17  1  0
 16 38  1  0
 17 18  1  0
 17 19  1  0
 18 39  1  0
 18 40  1  0
 18 41  1  0
 19 20  2  0
 20 21  1  0
 22 42  1  0
 22 43  1  0
M  END

