
     RDKit          3D

 49 51  0  0  0  0  0  0  0  0999 V2000
    1.0754    1.2535    0.6776 C   0  0  0  0  0  0  0  0  0  0  0  0
    2.4608    0.6661    0.5511 C   0  0  0  0  0  0  0  0  0  0  0  0
    3.5100    1.3881   -0.0292 C   0  0  0  0  0  0  0  0  0  0  0  0
    4.8017    0.8578   -0.1371 C   0  0  0  0  0  0  0  0  0  0  0  0
    5.9151    1.6707   -0.7524 C   0  0  0  0  0  0  0  0  0  0  0  0
    5.0464   -0.4452    0.3458 C   0  0  0  0  0  0  0  0  0  0  0  0
    6.3578   -0.9777    0.1985 N   0  0  0  0  0  0  0  0  0  0  0  0
    7.1474   -1.4419    1.2102 C   0  0  0  0  0  0  0  0  0  0  0  0
    6.8401   -1.4686    2.3890 O   0  0  0  0  0  0  0  0  0  0  0  0
    8.5304   -1.9313    0.7547 C   0  0  0  0  0  0  0  0  0  0  0  0
    8.5382   -3.4937   -0.2135 S   0  0  0  0  0  0  0  0  0  0  0  0
    8.3388   -2.8589   -1.8494 C   0  0  0  0  0  0  0  0  0  0  0  0
    7.9461   -1.6494   -2.1949 N   0  0  0  0  0  0  0  0  0  0  0  0
    7.9656   -1.6215   -3.5715 C   0  0  0  0  0  0  0  0  0  0  0  0
    8.3671   -2.8359   -4.0638 C   0  0  0  0  0  0  0  0  0  0  0  0
    8.6068   -3.6357   -2.9511 N   0  0  0  0  0  0  0  0  0  0  0  0
    9.0847   -4.9866   -2.9663 C   0  0  0  0  0  0  0  0  0  0  0  0
   10.4477   -5.2003   -3.2045 C   0  0  0  0  0  0  0  0  0  0  0  0
   10.9543   -6.4980   -3.2280 C   0  0  0  0  0  0  0  0  0  0  0  0
   10.1001   -7.5784   -3.0041 C   0  0  0  0  0  0  0  0  0  0  0  0
    8.7434   -7.3480   -2.7672 C   0  0  0  0  0  0  0  0  0  0  0  0
    7.7098   -8.7334   -2.4849 Cl  0  0  0  0  0  0  0  0  0  0  0  0
    8.1860   -6.0535   -2.7506 C   0  0  0  0  0  0  0  0  0  0  0  0
    6.7163   -5.8355   -2.5105 C   0  0  0  0  0  0  0  0  0  0  0  0
    4.0034   -1.2102    0.9146 C   0  0  0  0  0  0  0  0  0  0  0  0
    4.2261   -2.6217    1.3909 C   0  0  0  0  0  0  0  0  0  0  0  0
    2.7330   -0.6281    1.0124 C   0  0  0  0  0  0  0  0  0  0  0  0
    1.0179    2.2566    0.2294 H   0  0  0  0  0  0  0  0  0  0  0  0
    0.7720    1.3413    1.7347 H   0  0  0  0  0  0  0  0  0  0  0  0
    0.3220    0.6192    0.1808 H   0  0  0  0  0  0  0  0  0  0  0  0
    3.3237    2.4004   -0.4006 H   0  0  0  0  0  0  0  0  0  0  0  0
    5.5789    2.6928   -0.9787 H   0  0  0  0  0  0  0  0  0  0  0  0
    6.2815    1.2254   -1.6937 H   0  0  0  0  0  0  0  0  0  0  0  0
    6.7847    1.7358   -0.0781 H   0  0  0  0  0  0  0  0  0  0  0  0
    6.7944   -0.9440   -0.7314 H   0  0  0  0  0  0  0  0  0  0  0  0
    9.1034   -2.1596    1.6618 H   0  0  0  0  0  0  0  0  0  0  0  0
    9.0580   -1.1694    0.1624 H   0  0  0  0  0  0  0  0  0  0  0  0
    7.6811   -0.7304   -4.1285 H   0  0  0  0  0  0  0  0  0  0  0  0
    8.4957   -3.2169   -5.0733 H   0  0  0  0  0  0  0  0  0  0  0  0
   11.0991   -4.3387   -3.3608 H   0  0  0  0  0  0  0  0  0  0  0  0
   12.0168   -6.6715   -3.4119 H   0  0  0  0  0  0  0  0  0  0  0  0
   10.4748   -8.6031   -3.0091 H   0  0  0  0  0  0  0  0  0  0  0  0
    6.4612   -6.0237   -1.4544 H   0  0  0  0  0  0  0  0  0  0  0  0
    6.1185   -6.5361   -3.1118 H   0  0  0  0  0  0  0  0  0  0  0  0
    6.4118   -4.8105   -2.7548 H   0  0  0  0  0  0  0  0  0  0  0  0
    4.8432   -3.1904    0.6769 H   0  0  0  0  0  0  0  0  0  0  0  0
    3.2699   -3.1489    1.5224 H   0  0  0  0  0  0  0  0  0  0  0  0
    4.7725   -2.6270    2.3471 H   0  0  0  0  0  0  0  0  0  0  0  0
    1.9235   -1.2180    1.4543 H   0  0  0  0  0  0  0  0  0  0  0  0
  1  2  1  0
  1 28  1  0
  1 29  1  0
  1 30  1  0
  2  3  2  0
  2 27  1  0
  3  4  1  0
  3 31  1  0
  4  5  1  0
  4  6  2  0
  5 32  1  0
  5 33  1  0
  5 34  1  0
  6  7  1  0
  6 25  1  0
  7  8  1  0
  7 35  1  0
  8  9  2  0
  8 10  1  0
 10 11  1  0
 10 36  1  0
 10 37  1  0
 11 12  1  0
 12 13  2  0
 12 16  1  0
 13 14  1  0
 14 15  2  0
 14 38  1  0
 15 16  1  0
 15 39  1  0
 16 17  1  0
 17 18  2  0
 17 23  1  0
 18 19  1  0
 18 40  1  0
 19 20  2  0
 19 41  1  0
 20 21  1  0
 20 42  1  0
 21 22  1  0
 21 23  2  0
 23 24  1  0
 24 43  1  0
 24 44  1  0
 24 45  1  0
 25 26  1  0
 25 27  2  0
 26 46  1  0
 26 47  1  0
 26 48  1  0
 27 49  1  0
M  END

