
     RDKit          3D

 28 29  0  0  0  0  0  0  0  0999 V2000
    1.1265   -0.1043    0.5506 N   0  0  0  0  0  0  0  0  0  0  0  0
    2.4851   -0.1197    0.2819 C   0  0  0  0  0  0  0  0  0  0  0  0
    3.3947    0.5526    1.1197 C   0  0  0  0  0  0  0  0  0  0  0  0
    4.7543    0.5667    0.8154 C   0  0  0  0  0  0  0  0  0  0  0  0
    5.9353    1.5094    1.9720 Br  0  0  0  0  0  0  0  0  0  0  0  0
    5.2814   -0.0725   -0.3247 C   0  0  0  0  0  0  0  0  0  0  0  0
    6.6084    0.0086   -0.6157 O   0  0  0  0  0  0  0  0  0  0  0  0
    7.4236   -1.1364   -0.3073 C   0  0  0  0  0  0  0  0  0  0  0  0
    8.8681   -0.7073   -0.2519 C   0  0  0  0  0  0  0  0  0  0  0  0
    9.5881   -0.6089    0.9556 C   0  0  0  0  0  0  0  0  0  0  0  0
    8.8407   -1.0336    2.4840 Cl  0  0  0  0  0  0  0  0  0  0  0  0
   10.9215   -0.1905    0.9982 C   0  0  0  0  0  0  0  0  0  0  0  0
   11.5712    0.1500   -0.1869 C   0  0  0  0  0  0  0  0  0  0  0  0
   10.9001    0.0621   -1.4061 C   0  0  0  0  0  0  0  0  0  0  0  0
    9.5699   -0.3633   -1.4258 C   0  0  0  0  0  0  0  0  0  0  0  0
    8.7804   -0.4829   -2.9812 Cl  0  0  0  0  0  0  0  0  0  0  0  0
    4.3496   -0.7231   -1.1562 C   0  0  0  0  0  0  0  0  0  0  0  0
    4.9470   -1.5546   -2.7649 Br  0  0  0  0  0  0  0  0  0  0  0  0
    2.9863   -0.7570   -0.8689 C   0  0  0  0  0  0  0  0  0  0  0  0
    0.8510    0.0949    1.5048 H   0  0  0  0  0  0  0  0  0  0  0  0
    0.5644   -0.8231    0.1108 H   0  0  0  0  0  0  0  0  0  0  0  0
    3.0397    1.0719    2.0115 H   0  0  0  0  0  0  0  0  0  0  0  0
    7.2913   -1.8993   -1.0916 H   0  0  0  0  0  0  0  0  0  0  0  0
    7.1189   -1.5615    0.6584 H   0  0  0  0  0  0  0  0  0  0  0  0
   11.4338   -0.1337    1.9592 H   0  0  0  0  0  0  0  0  0  0  0  0
   12.6120    0.4816   -0.1607 H   0  0  0  0  0  0  0  0  0  0  0  0
   11.3946    0.3171   -2.3441 H   0  0  0  0  0  0  0  0  0  0  0  0
    2.3074   -1.2704   -1.5520 H   0  0  0  0  0  0  0  0  0  0  0  0
  1  2  1  0
  1 20  1  0
  1 21  1  0
  2  3  2  0
  2 19  1  0
  3  4  1  0
  3 22  1  0
  4  5  1  0
  4  6  2  0
  6  7  1  0
  6 17  1  0
  7  8  1  0
  8  9  1  0
  8 23  1  0
  8 24  1  0
  9 10  2  0
  9 15  1  0
 10 11  1  0
 10 12  1  0
 12 13  2  0
 12 25  1  0
 13 14  1  0
 13 26  1  0
 14 15  2  0
 14 27  1  0
 15 16  1  0
 17 18  1  0
 17 19  2  0
 19 28  1  0
M  END

