
     RDKit          3D

 32 32  0  0  0  0  0  0  0  0999 V2000
    5.9333   -1.3223   -0.6974 C   0  0  0  0  0  0  0  0  0  0  0  0
    4.3894   -1.3691    0.2723 S   0  0  0  0  0  0  0  0  0  0  0  0
    4.8130   -0.2152    1.6278 C   0  0  0  0  0  0  0  0  0  0  0  0
    4.7225    1.2834    1.2688 C   0  0  1  0  0  0  0  0  0  0  0  0
    3.2979    1.7435    0.9695 C   0  0  0  0  0  0  0  0  0  0  0  0
    5.2984    2.0937    2.3404 N   0  0  0  0  0  0  0  0  0  0  0  0
    6.6436    2.3244    2.4355 C   0  0  0  0  0  0  0  0  0  0  0  0
    7.4466    1.9182    1.6139 O   0  0  0  0  0  0  0  0  0  0  0  0
    7.0436    3.1846    3.6165 C   0  0  0  0  0  0  0  0  0  0  0  0
    6.4427    4.4452    3.7606 C   0  0  0  0  0  0  0  0  0  0  0  0
    6.8327    5.3064    4.7851 C   0  0  0  0  0  0  0  0  0  0  0  0
    7.8209    4.9064    5.6836 C   0  0  0  0  0  0  0  0  0  0  0  0
    8.4389    3.6485    5.5897 C   0  0  0  0  0  0  0  0  0  0  0  0
    9.4903    3.2447    6.5905 C   0  0  0  0  0  0  0  0  0  0  0  0
    8.0327    2.8016    4.5393 C   0  0  0  0  0  0  0  0  0  0  0  0
    8.8229    1.0621    4.4180 Br  0  0  0  0  0  0  0  0  0  0  0  0
    5.7861   -1.9988   -1.5517 H   0  0  0  0  0  0  0  0  0  0  0  0
    6.7857   -1.6808   -0.1005 H   0  0  0  0  0  0  0  0  0  0  0  0
    6.1553   -0.3152   -1.0793 H   0  0  0  0  0  0  0  0  0  0  0  0
    5.8296   -0.4467    1.9802 H   0  0  0  0  0  0  0  0  0  0  0  0
    4.1141   -0.4517    2.4478 H   0  0  0  0  0  0  0  0  0  0  0  0
    5.3619    1.4579    0.3906 H   0  0  0  0  0  0  0  0  0  0  0  0
    2.6524    1.6428    1.8602 H   0  0  0  0  0  0  0  0  0  0  0  0
    2.8635    1.1250    0.1711 H   0  0  0  0  0  0  0  0  0  0  0  0
    3.2817    2.7965    0.6491 H   0  0  0  0  0  0  0  0  0  0  0  0
    4.7074    2.3507    3.1233 H   0  0  0  0  0  0  0  0  0  0  0  0
    5.6791    4.7535    3.0424 H   0  0  0  0  0  0  0  0  0  0  0  0
    6.3696    6.2913    4.8811 H   0  0  0  0  0  0  0  0  0  0  0  0
    8.1278    5.5805    6.4877 H   0  0  0  0  0  0  0  0  0  0  0  0
    9.6712    4.0526    7.3137 H   0  0  0  0  0  0  0  0  0  0  0  0
   10.4431    3.0018    6.0935 H   0  0  0  0  0  0  0  0  0  0  0  0
    9.1887    2.3419    7.1458 H   0  0  0  0  0  0  0  0  0  0  0  0
  1  2  1  0
  1 17  1  0
  1 18  1  0
  1 19  1  0
  2  3  1  0
  3  4  1  0
  3 20  1  0
  3 21  1  0
  4  5  1  0
  4  6  1  0
  4 22  1  6
  5 23  1  0
  5 24  1  0
  5 25  1  0
  6  7  1  0
  6 26  1  0
  7  8  2  0
  7  9  1  0
  9 10  2  0
  9 15  1  0
 10 11  1  0
 10 27  1  0
 11 12  2  0
 11 28  1  0
 12 13  1  0
 12 29  1  0
 13 14  1  0
 13 15  2  0
 14 30  1  0
 14 31  1  0
 14 32  1  0
 15 16  1  0
M  END

