
     RDKit          3D

 37 38  0  0  0  0  0  0  0  0999 V2000
    2.8180    0.7226    2.6478 C   0  0  0  0  0  0  0  0  0  0  0  0
    4.0162    0.2453    1.9071 C   0  0  0  0  0  0  0  0  0  0  0  0
    5.1923    0.7880    1.8350 N   0  0  0  0  0  0  0  0  0  0  0  0
    5.9383   -0.0390    1.0101 C   0  0  0  0  0  0  0  0  0  0  0  0
    7.3572    0.2764    0.6772 C   0  0  0  0  0  0  0  0  0  0  0  0
    5.1466   -1.0943    0.6185 C   0  0  0  0  0  0  0  0  0  0  0  0
    5.4410   -2.2040   -0.3250 C   0  0  0  0  0  0  0  0  0  0  0  0
    6.3773   -2.0531   -1.1078 O   0  0  0  0  0  0  0  0  0  0  0  0
    4.6767   -3.3492   -0.3367 N   0  0  0  0  0  0  0  0  0  0  0  0
    3.8128   -3.8154    0.7426 C   0  0  0  0  0  0  0  0  0  0  0  0
    4.3540   -5.0309    1.5151 C   0  0  0  0  0  0  0  0  0  0  0  0
    4.3961   -6.3424    0.7143 C   0  0  0  0  0  0  0  0  0  0  0  0
    5.6129   -6.5708   -0.2151 C   0  0  2  0  0  0  0  0  0  0  0  0
    6.8095   -7.1569    0.5472 C   0  0  0  0  0  0  0  0  0  0  0  0
    6.0622   -5.3304   -1.0254 C   0  0  0  0  0  0  0  0  0  0  0  0
    4.9779   -4.3088   -1.4035 C   0  0  0  0  0  0  0  0  0  0  0  0
    3.9081   -0.9014    1.1970 O   0  0  0  0  0  0  0  0  0  0  0  0
    3.0601    1.6710    3.1427 H   0  0  0  0  0  0  0  0  0  0  0  0
    2.5029   -0.0101    3.4085 H   0  0  0  0  0  0  0  0  0  0  0  0
    1.9677    0.8770    1.9641 H   0  0  0  0  0  0  0  0  0  0  0  0
    7.9357    0.4379    1.6010 H   0  0  0  0  0  0  0  0  0  0  0  0
    7.4071    1.2144    0.0995 H   0  0  0  0  0  0  0  0  0  0  0  0
    7.8066   -0.5229    0.0779 H   0  0  0  0  0  0  0  0  0  0  0  0
    2.8265   -4.0780    0.3146 H   0  0  0  0  0  0  0  0  0  0  0  0
    3.6370   -2.9927    1.4396 H   0  0  0  0  0  0  0  0  0  0  0  0
    3.6852   -5.1717    2.3821 H   0  0  0  0  0  0  0  0  0  0  0  0
    5.3465   -4.7881    1.9339 H   0  0  0  0  0  0  0  0  0  0  0  0
    3.4663   -6.4056    0.1217 H   0  0  0  0  0  0  0  0  0  0  0  0
    4.3475   -7.1933    1.4149 H   0  0  0  0  0  0  0  0  0  0  0  0
    5.2891   -7.3369   -0.9431 H   0  0  0  0  0  0  0  0  0  0  0  0
    7.1480   -6.4747    1.3460 H   0  0  0  0  0  0  0  0  0  0  0  0
    7.6674   -7.3223   -0.1249 H   0  0  0  0  0  0  0  0  0  0  0  0
    6.5583   -8.1229    1.0147 H   0  0  0  0  0  0  0  0  0  0  0  0
    6.5497   -5.6818   -1.9508 H   0  0  0  0  0  0  0  0  0  0  0  0
    6.8457   -4.7797   -0.4792 H   0  0  0  0  0  0  0  0  0  0  0  0
    4.0363   -4.8099   -1.6855 H   0  0  0  0  0  0  0  0  0  0  0  0
    5.3237   -3.7272   -2.2665 H   0  0  0  0  0  0  0  0  0  0  0  0
  1  2  1  0
  1 18  1  0
  1 19  1  0
  1 20  1  0
  2  3  2  0
  2 17  1  0
  3  4  1  0
  4  5  1  0
  4  6  2  0
  5 21  1  0
  5 22  1  0
  5 23  1  0
  6  7  1  0
  6 17  1  0
  7  8  2  0
  7  9  1  0
  9 10  1  0
  9 16  1  0
 10 11  1  0
 10 24  1  0
 10 25  1  0
 11 12  1  0
 11 26  1  0
 11 27  1  0
 12 13  1  0
 12 28  1  0
 12 29  1  0
 13 14  1  0
 13 15  1  0
 13 30  1  6
 14 31  1  0
 14 32  1  0
 14 33  1  0
 15 16  1  0
 15 34  1  0
 15 35  1  0
 16 36  1  0
 16 37  1  0
M  END

