
     RDKit          3D

 31 31  0  0  0  0  0  0  0  0999 V2000
    1.6089   -0.9966   -0.7438 C   0  0  0  0  0  0  0  0  0  0  0  0
    1.6737    0.1390    0.2815 C   0  0  0  0  0  0  0  0  0  0  0  0
    2.9188    1.0114    0.1306 C   0  0  1  0  0  0  0  0  0  0  0  0
    4.2393    0.2412    0.2698 C   0  0  0  0  0  0  0  0  0  0  0  0
    5.0409    0.1567   -0.6445 O   0  0  0  0  0  0  0  0  0  0  0  0
    4.4061   -0.3685    1.4772 N   0  0  0  0  0  0  0  0  0  0  0  0
    5.6301   -1.0829    1.8416 C   0  0  1  0  0  0  0  0  0  0  0  0
    6.6450   -0.1482    2.5115 C   0  0  0  0  0  0  0  0  0  0  0  0
    5.2862   -2.2950    2.7092 C   0  0  0  0  0  0  0  0  0  0  0  0
    2.9703    2.1724   -0.8552 C   0  0  1  0  0  0  0  0  0  0  0  0
    1.8540    2.5474   -1.8032 C   0  0  0  0  0  0  0  0  0  0  0  0
    2.9247    2.4492    0.6189 C   0  0  1  0  0  0  0  0  0  0  0  0
    1.4500    3.1330    1.3530 Cl  0  0  0  0  0  0  0  0  0  0  0  0
    4.3831    3.0958    1.4213 Cl  0  0  0  0  0  0  0  0  0  0  0  0
    0.6895   -1.5879   -0.6094 H   0  0  0  0  0  0  0  0  0  0  0  0
    2.4652   -1.6822   -0.6476 H   0  0  0  0  0  0  0  0  0  0  0  0
    1.6126   -0.6069   -1.7737 H   0  0  0  0  0  0  0  0  0  0  0  0
    1.6488   -0.2805    1.3024 H   0  0  0  0  0  0  0  0  0  0  0  0
    0.7768    0.7690    0.2026 H   0  0  0  0  0  0  0  0  0  0  0  0
    3.7749   -0.1090    2.2281 H   0  0  0  0  0  0  0  0  0  0  0  0
    6.0557   -1.4261    0.8867 H   0  0  0  0  0  0  0  0  0  0  0  0
    6.2488    0.2534    3.4597 H   0  0  0  0  0  0  0  0  0  0  0  0
    6.8822    0.7000    1.8528 H   0  0  0  0  0  0  0  0  0  0  0  0
    7.5812   -0.6845    2.7354 H   0  0  0  0  0  0  0  0  0  0  0  0
    4.8245   -1.9848    3.6631 H   0  0  0  0  0  0  0  0  0  0  0  0
    6.1942   -2.8671    2.9548 H   0  0  0  0  0  0  0  0  0  0  0  0
    4.5843   -2.9671    2.1919 H   0  0  0  0  0  0  0  0  0  0  0  0
    3.9731    2.2969   -1.2782 H   0  0  0  0  0  0  0  0  0  0  0  0
    0.8575    2.4096   -1.3628 H   0  0  0  0  0  0  0  0  0  0  0  0
    1.9158    1.9426   -2.7215 H   0  0  0  0  0  0  0  0  0  0  0  0
    1.9440    3.6062   -2.0941 H   0  0  0  0  0  0  0  0  0  0  0  0
  1  2  1  0
  1 15  1  0
  1 16  1  0
  1 17  1  0
  2  3  1  0
  2 18  1  0
  2 19  1  0
  3  4  1  1
  3 10  1  0
  3 12  1  0
  4  5  2  0
  4  6  1  0
  6  7  1  0
  6 20  1  0
  7  8  1  0
  7  9  1  0
  7 21  1  6
  8 22  1  0
  8 23  1  0
  8 24  1  0
  9 25  1  0
  9 26  1  0
  9 27  1  0
 10 11  1  0
 10 12  1  0
 10 28  1  6
 11 29  1  0
 11 30  1  0
 11 31  1  0
 12 13  1  6
 12 14  1  0
M  END

