
     RDKit          3D

 43 45  0  0  0  0  0  0  0  0999 V2000
    1.2321    0.2235    0.2138 C   0  0  0  0  0  0  0  0  0  0  0  0
    2.7447    0.1052   -0.0634 C   0  0  1  0  0  0  0  0  0  0  0  0
    3.0406    0.1741   -1.5698 C   0  0  0  0  0  0  0  0  0  0  0  0
    2.5313   -0.8093   -2.4376 C   0  0  0  0  0  0  0  0  0  0  0  0
    2.7707   -0.7434   -3.8124 C   0  0  0  0  0  0  0  0  0  0  0  0
    3.5154    0.3062   -4.3539 C   0  0  0  0  0  0  0  0  0  0  0  0
    4.0157    1.2702   -3.4821 C   0  0  0  0  0  0  0  0  0  0  0  0
    4.8098    2.3937   -4.0312 N   0  0  0  0  0  0  0  0  0  0  0  0
    5.0046    2.4082   -5.2346 O   0  0  0  0  0  0  0  0  0  0  0  0
    5.2145    3.2344   -3.2449 O   0  0  0  0  0  0  0  0  0  0  0  0
    3.7988    1.2192   -2.1049 C   0  0  0  0  0  0  0  0  0  0  0  0
    3.5130    1.0661    0.7142 N   0  0  0  0  0  0  0  0  0  0  0  0
    4.3199    0.4999    1.6653 C   0  0  0  0  0  0  0  0  0  0  0  0
    4.9858    1.0358    2.5122 O   0  0  0  0  0  0  0  0  0  0  0  0
    4.2031   -0.9103    1.4795 N   0  0  0  0  0  0  0  0  0  0  0  0
    4.8863   -1.8745    2.3296 C   0  0  0  0  0  0  0  0  0  0  0  0
    6.0321   -2.6468    1.6445 C   0  0  0  0  0  0  0  0  0  0  0  0
    7.1704   -2.5665    2.0629 O   0  0  0  0  0  0  0  0  0  0  0  0
    5.6340   -3.4258    0.5864 N   0  0  0  0  0  0  0  0  0  0  0  0
    6.4428   -4.2387   -0.2222 C   0  0  0  0  0  0  0  0  0  0  0  0
    7.8330   -4.3936   -0.0858 C   0  0  0  0  0  0  0  0  0  0  0  0
    8.5444   -5.2318   -0.9490 C   0  0  0  0  0  0  0  0  0  0  0  0
    7.8790   -5.9282   -1.9592 C   0  0  0  0  0  0  0  0  0  0  0  0
    8.8506   -7.0711   -3.1335 Br  0  0  0  0  0  0  0  0  0  0  0  0
    6.4964   -5.7960   -2.1195 C   0  0  0  0  0  0  0  0  0  0  0  0
    5.8103   -4.9581   -1.2533 C   0  0  0  0  0  0  0  0  0  0  0  0
    4.4779   -4.8186   -1.3927 F   0  0  0  0  0  0  0  0  0  0  0  0
    3.2781   -1.2241    0.5238 C   0  0  0  0  0  0  0  0  0  0  0  0
    2.9317   -2.3451    0.2027 O   0  0  0  0  0  0  0  0  0  0  0  0
    0.8566    1.1887   -0.1594 H   0  0  0  0  0  0  0  0  0  0  0  0
    1.0324    0.1587    1.2943 H   0  0  0  0  0  0  0  0  0  0  0  0
    0.6814   -0.5813   -0.2920 H   0  0  0  0  0  0  0  0  0  0  0  0
    1.9690   -1.6499   -2.0286 H   0  0  0  0  0  0  0  0  0  0  0  0
    2.3740   -1.5216   -4.4682 H   0  0  0  0  0  0  0  0  0  0  0  0
    3.7170    0.3890   -5.4214 H   0  0  0  0  0  0  0  0  0  0  0  0
    4.2375    1.9943   -1.4797 H   0  0  0  0  0  0  0  0  0  0  0  0
    3.3035    2.0563    0.7601 H   0  0  0  0  0  0  0  0  0  0  0  0
    4.1429   -2.5880    2.7222 H   0  0  0  0  0  0  0  0  0  0  0  0
    5.3345   -1.3133    3.1579 H   0  0  0  0  0  0  0  0  0  0  0  0
    4.6396   -3.4118    0.3476 H   0  0  0  0  0  0  0  0  0  0  0  0
    8.3445   -3.8502    0.7051 H   0  0  0  0  0  0  0  0  0  0  0  0
    9.6232   -5.3393   -0.8283 H   0  0  0  0  0  0  0  0  0  0  0  0
    5.9470   -6.3269   -2.8973 H   0  0  0  0  0  0  0  0  0  0  0  0
  2  1  1  6
  1 30  1  0
  1 31  1  0
  1 32  1  0
  2  3  1  0
  2 12  1  0
  2 28  1  0
  3  4  2  0
  3 11  1  0
  4  5  1  0
  4 33  1  0
  5  6  2  0
  5 34  1  0
  6  7  1  0
  6 35  1  0
  7  8  1  0
  7 11  2  0
  8  9  2  0
  8 10  1  0
 11 36  1  0
 12 13  1  0
 12 37  1  0
 13 14  2  0
 13 15  1  0
 15 16  1  0
 15 28  1  0
 16 17  1  0
 16 38  1  0
 16 39  1  0
 17 18  2  0
 17 19  1  0
 19 20  1  0
 19 40  1  0
 20 21  2  0
 20 26  1  0
 21 22  1  0
 21 41  1  0
 22 23  2  0
 22 42  1  0
 23 24  1  0
 23 25  1  0
 25 26  2  0
 25 43  1  0
 26 27  1  0
 28 29  2  0
M  CHG  2   8   1  10  -1
M  END

