
     RDKit          3D

 66 71  0  0  0  0  0  0  0  0999 V2000
    2.5514   -0.0853   -3.1290 C   0  0  0  0  0  0  0  0  0  0  0  0
    3.7063   -0.3331   -2.1577 C   0  0  0  0  0  0  0  0  0  0  0  0
    4.0830    0.9079   -1.3426 C   0  0  0  0  0  0  0  0  0  0  0  0
    5.2292    0.6534   -0.3767 C   0  0  0  0  0  0  0  0  0  0  0  0
    5.5091    1.8630    0.3154 O   0  0  0  0  0  0  0  0  0  0  0  0
    6.4767    1.9078    1.2605 C   0  0  0  0  0  0  0  0  0  0  0  0
    7.3033    0.8214    1.5709 C   0  0  0  0  0  0  0  0  0  0  0  0
    8.3130    0.9236    2.5426 C   0  0  0  0  0  0  0  0  0  0  0  0
    8.5107    2.1644    3.1967 C   0  0  0  0  0  0  0  0  0  0  0  0
    7.6815    3.2435    2.8672 C   0  0  0  0  0  0  0  0  0  0  0  0
    6.6467    3.1340    1.9413 C   0  0  0  0  0  0  0  0  0  0  0  0
    5.8844    4.3877    1.6015 C   0  0  0  0  0  0  0  0  0  0  0  0
    6.4921    5.4171    1.3447 O   0  0  0  0  0  0  0  0  0  0  0  0
    4.5086    4.3703    1.5744 N   0  0  0  0  0  0  0  0  0  0  0  0
    3.8020    5.5457    1.0238 C   0  0  0  0  0  0  0  0  0  0  0  0
    2.3740    5.0348    0.7498 C   0  0  0  0  0  0  0  0  0  0  0  0
    2.2763    3.8170    1.6399 C   0  0  0  0  0  0  0  0  0  0  0  0
    1.1577    3.0856    2.0218 C   0  0  0  0  0  0  0  0  0  0  0  0
    1.3339    1.9820    2.8680 C   0  0  0  0  0  0  0  0  0  0  0  0
   -0.0596    1.0466    3.3661 Cl  0  0  0  0  0  0  0  0  0  0  0  0
    2.6047    1.6305    3.3311 C   0  0  0  0  0  0  0  0  0  0  0  0
    3.7307    2.3685    2.9469 C   0  0  0  0  0  0  0  0  0  0  0  0
    3.5635    3.4547    2.0818 C   0  0  0  0  0  0  0  0  0  0  0  0
    9.5164    2.3209    4.1461 N   0  0  0  0  0  0  0  0  0  0  0  0
    9.6398    3.2262    4.5892 H   0  0  0  0  0  0  0  0  0  0  0  0
   10.3990    1.3348    4.5495 C   0  0  0  0  0  0  0  0  0  0  0  0
   11.2633    1.5342    5.3835 O   0  0  0  0  0  0  0  0  0  0  0  0
   10.1719    0.0568    3.8782 C   0  0  0  0  0  0  0  0  0  0  0  0
   10.8042   -1.1534    4.0329 C   0  0  0  0  0  0  0  0  0  0  0  0
   10.2386   -2.0796    3.2145 N   0  0  0  0  0  0  0  0  0  0  0  0
    9.2668   -1.4845    2.5455 C   0  0  0  0  0  0  0  0  0  0  0  0
    8.4110   -2.2011    1.5288 C   0  0  1  0  0  0  0  0  0  0  0  0
    8.8349   -1.8946    0.0640 C   0  0  0  0  0  0  0  0  0  0  0  0
   10.0752   -2.6932   -0.3438 C   0  0  0  0  0  0  0  0  0  0  0  0
    9.8728   -4.0792   -0.1826 O   0  0  0  0  0  0  0  0  0  0  0  0
    9.6500   -4.4289    1.1740 C   0  0  0  0  0  0  0  0  0  0  0  0
    8.4066   -3.7356    1.7371 C   0  0  0  0  0  0  0  0  0  0  0  0
    9.1717   -0.1424    2.9126 N   0  0  0  0  0  0  0  0  0  0  0  0
    2.3040   -0.9943   -3.6992 H   0  0  0  0  0  0  0  0  0  0  0  0
    2.8015    0.7062   -3.8549 H   0  0  0  0  0  0  0  0  0  0  0  0
    1.6405    0.2317   -2.5947 H   0  0  0  0  0  0  0  0  0  0  0  0
    4.5901   -0.6859   -2.7200 H   0  0  0  0  0  0  0  0  0  0  0  0
    3.4377   -1.1558   -1.4703 H   0  0  0  0  0  0  0  0  0  0  0  0
    3.2110    1.2631   -0.7672 H   0  0  0  0  0  0  0  0  0  0  0  0
    4.3713    1.7324   -2.0176 H   0  0  0  0  0  0  0  0  0  0  0  0
    6.1296    0.3157   -0.9240 H   0  0  0  0  0  0  0  0  0  0  0  0
    4.9593   -0.1385    0.3474 H   0  0  0  0  0  0  0  0  0  0  0  0
    7.1674   -0.1072    1.0344 H   0  0  0  0  0  0  0  0  0  0  0  0
    7.8488    4.2104    3.3470 H   0  0  0  0  0  0  0  0  0  0  0  0
    4.3323    5.9110    0.1355 H   0  0  0  0  0  0  0  0  0  0  0  0
    3.8092    6.3617    1.7671 H   0  0  0  0  0  0  0  0  0  0  0  0
    2.2502    4.7480   -0.3096 H   0  0  0  0  0  0  0  0  0  0  0  0
    1.6098    5.7940    0.9728 H   0  0  0  0  0  0  0  0  0  0  0  0
    0.1573    3.3606    1.6821 H   0  0  0  0  0  0  0  0  0  0  0  0
    2.7138    0.7817    4.0082 H   0  0  0  0  0  0  0  0  0  0  0  0
    4.7089    2.0957    3.3389 H   0  0  0  0  0  0  0  0  0  0  0  0
   11.6329   -1.3782    4.7016 H   0  0  0  0  0  0  0  0  0  0  0  0
    7.3736   -1.8632    1.6749 H   0  0  0  0  0  0  0  0  0  0  0  0
    9.0232   -0.8187   -0.0836 H   0  0  0  0  0  0  0  0  0  0  0  0
    8.0048   -2.1774   -0.6061 H   0  0  0  0  0  0  0  0  0  0  0  0
   10.9547   -2.3574    0.2434 H   0  0  0  0  0  0  0  0  0  0  0  0
   10.3020   -2.5246   -1.4082 H   0  0  0  0  0  0  0  0  0  0  0  0
   10.5310   -4.1724    1.7881 H   0  0  0  0  0  0  0  0  0  0  0  0
    9.5169   -5.5216    1.1954 H   0  0  0  0  0  0  0  0  0  0  0  0
    8.2988   -3.9763    2.8056 H   0  0  0  0  0  0  0  0  0  0  0  0
    7.5211   -4.1353    1.2144 H   0  0  0  0  0  0  0  0  0  0  0  0
  1  2  1  0
  1 39  1  0
  1 40  1  0
  1 41  1  0
  2  3  1  0
  2 42  1  0
  2 43  1  0
  3  4  1  0
  3 44  1  0
  3 45  1  0
  4  5  1  0
  4 46  1  0
  4 47  1  0
  5  6  1  0
  6  7  2  0
  6 11  1  0
  7  8  1  0
  7 48  1  0
  8  9  2  0
  8 38  1  0
  9 10  1  0
  9 24  1  0
 10 11  2  0
 10 49  1  0
 11 12  1  0
 12 13  2  0
 12 14  1  0
 14 15  1  0
 14 23  1  0
 15 16  1  0
 15 50  1  0
 15 51  1  0
 16 17  1  0
 16 52  1  0
 16 53  1  0
 17 18  1  0
 17 23  2  0
 18 19  2  0
 18 54  1  0
 19 20  1  0
 19 21  1  0
 21 22  2  0
 21 55  1  0
 22 23  1  0
 22 56  1  0
 24 25  1  0
 24 26  1  0
 26 27  2  0
 26 28  1  0
 28 29  2  0
 28 38  1  0
 29 30  1  0
 29 57  1  0
 30 31  2  0
 31 32  1  0
 31 38  1  0
 32 33  1  0
 32 37  1  0
 32 58  1  6
 33 34  1  0
 33 59  1  0
 33 60  1  0
 34 35  1  0
 34 61  1  0
 34 62  1  0
 35 36  1  0
 36 37  1  0
 36 63  1  0
 36 64  1  0
 37 65  1  0
 37 66  1  0
M  END

