
     RDKit          3D

 64 68  0  0  0  0  0  0  0  0999 V2000
    1.0411    0.6819   -0.0881 C   0  0  0  0  0  0  0  0  0  0  0  0
    2.2356   -0.2372   -0.3582 C   0  0  1  0  0  0  0  0  0  0  0  0
    3.3694    0.4690   -1.1069 C   0  0  0  0  0  0  0  0  0  0  0  0
    2.7292   -0.8209    0.8921 N   0  0  0  0  0  0  0  0  0  0  0  0
    3.2200   -0.0435    1.8814 N   0  0  0  0  0  0  0  0  0  0  0  0
    3.5768   -0.8349    2.8786 C   0  0  0  0  0  0  0  0  0  0  0  0
    3.3191   -2.1990    2.5506 C   0  0  0  0  0  0  0  0  0  0  0  0
    3.4765   -3.4789    3.1219 C   0  0  0  0  0  0  0  0  0  0  0  0
    4.0815   -3.6027    4.4978 C   0  0  0  0  0  0  0  0  0  0  0  0
    4.0025   -2.6854    5.3008 O   0  0  0  0  0  0  0  0  0  0  0  0
    4.7164   -4.7941    4.7416 N   0  0  0  0  0  0  0  0  0  0  0  0
    5.3659   -5.2271    5.9176 C   0  0  0  0  0  0  0  0  0  0  0  0
    5.4116   -4.4846    7.1064 C   0  0  0  0  0  0  0  0  0  0  0  0
    6.0655   -4.9935    8.2305 C   0  0  0  0  0  0  0  0  0  0  0  0
    6.7148   -6.2460    8.2214 C   0  0  0  0  0  0  0  0  0  0  0  0
    7.4150   -6.7418    9.3339 N   0  0  0  0  0  0  0  0  0  0  0  0
    7.2619   -8.1557    9.6860 C   0  0  0  0  0  0  0  0  0  0  0  0
    8.4080   -8.6199   10.5955 C   0  0  0  0  0  0  0  0  0  0  0  0
    8.5845   -7.7939   11.7806 N   0  0  0  0  0  0  0  0  0  0  0  0
    7.6549   -8.0514   12.8648 C   0  0  0  0  0  0  0  0  0  0  0  0
    8.7235   -6.3987   11.3922 C   0  0  0  0  0  0  0  0  0  0  0  0
    7.5880   -5.8775   10.4952 C   0  0  0  0  0  0  0  0  0  0  0  0
    6.6603   -6.9783    7.0129 C   0  0  0  0  0  0  0  0  0  0  0  0
    6.0004   -6.4821    5.8957 C   0  0  0  0  0  0  0  0  0  0  0  0
    3.0248   -4.5595    2.3655 C   0  0  0  0  0  0  0  0  0  0  0  0
    2.4566   -4.3804    1.0695 C   0  0  0  0  0  0  0  0  0  0  0  0
    1.9764   -5.5441    0.2711 C   0  0  0  0  0  0  0  0  0  0  0  0
    1.6729   -6.7856    0.8602 C   0  0  0  0  0  0  0  0  0  0  0  0
    1.2247   -7.8571    0.0846 C   0  0  0  0  0  0  0  0  0  0  0  0
    1.0716   -7.7110   -1.2968 C   0  0  0  0  0  0  0  0  0  0  0  0
    1.3632   -6.4801   -1.8946 C   0  0  0  0  0  0  0  0  0  0  0  0
    1.8060   -5.4086   -1.1198 C   0  0  0  0  0  0  0  0  0  0  0  0
    2.3439   -3.1726    0.5101 N   0  0  0  0  0  0  0  0  0  0  0  0
    2.7608   -2.1431    1.2431 C   0  0  0  0  0  0  0  0  0  0  0  0
    0.6474    1.0826   -1.0352 H   0  0  0  0  0  0  0  0  0  0  0  0
    1.3407    1.5260    0.5512 H   0  0  0  0  0  0  0  0  0  0  0  0
    0.2304    0.1358    0.4182 H   0  0  0  0  0  0  0  0  0  0  0  0
    1.8990   -1.1067   -0.9433 H   0  0  0  0  0  0  0  0  0  0  0  0
    3.7650    1.3037   -0.5085 H   0  0  0  0  0  0  0  0  0  0  0  0
    3.0024    0.8690   -2.0649 H   0  0  0  0  0  0  0  0  0  0  0  0
    4.1961   -0.2266   -1.3182 H   0  0  0  0  0  0  0  0  0  0  0  0
    3.9907   -0.4288    3.7987 H   0  0  0  0  0  0  0  0  0  0  0  0
    4.8006   -5.4220    3.9514 H   0  0  0  0  0  0  0  0  0  0  0  0
    4.9261   -3.5124    7.1468 H   0  0  0  0  0  0  0  0  0  0  0  0
    6.0524   -4.3879    9.1361 H   0  0  0  0  0  0  0  0  0  0  0  0
    7.2593   -8.7710    8.7773 H   0  0  0  0  0  0  0  0  0  0  0  0
    6.2832   -8.3255   10.1867 H   0  0  0  0  0  0  0  0  0  0  0  0
    9.3455   -8.5913   10.0106 H   0  0  0  0  0  0  0  0  0  0  0  0
    8.2392   -9.6662   10.8981 H   0  0  0  0  0  0  0  0  0  0  0  0
    7.7111   -9.1138   13.1535 H   0  0  0  0  0  0  0  0  0  0  0  0
    6.5876   -7.8250   12.6482 H   0  0  0  0  0  0  0  0  0  0  0  0
    7.9428   -7.4546   13.7456 H   0  0  0  0  0  0  0  0  0  0  0  0
    9.6730   -6.2881   10.8377 H   0  0  0  0  0  0  0  0  0  0  0  0
    8.7951   -5.7709   12.2951 H   0  0  0  0  0  0  0  0  0  0  0  0
    7.8533   -4.8661   10.1539 H   0  0  0  0  0  0  0  0  0  0  0  0
    6.6457   -5.7845   11.0798 H   0  0  0  0  0  0  0  0  0  0  0  0
    7.1637   -7.9426    6.9325 H   0  0  0  0  0  0  0  0  0  0  0  0
    5.9888   -7.0798    4.9785 H   0  0  0  0  0  0  0  0  0  0  0  0
    3.0913   -5.5693    2.7699 H   0  0  0  0  0  0  0  0  0  0  0  0
    1.7590   -6.9195    1.9402 H   0  0  0  0  0  0  0  0  0  0  0  0
    0.9868   -8.8095    0.5652 H   0  0  0  0  0  0  0  0  0  0  0  0
    0.7227   -8.5503   -1.9038 H   0  0  0  0  0  0  0  0  0  0  0  0
    1.2447   -6.3547   -2.9741 H   0  0  0  0  0  0  0  0  0  0  0  0
    2.0308   -4.4451   -1.5784 H   0  0  0  0  0  0  0  0  0  0  0  0
  1  2  1  0
  1 35  1  0
  1 36  1  0
  1 37  1  0
  2  3  1  0
  2  4  1  0
  2 38  1  6
  3 39  1  0
  3 40  1  0
  3 41  1  0
  4  5  1  0
  4 34  1  0
  5  6  2  0
  6  7  1  0
  6 42  1  0
  7  8  1  0
  7 34  2  0
  8  9  1  0
  8 25  2  0
  9 10  2  0
  9 11  1  0
 11 12  1  0
 11 43  1  0
 12 13  2  0
 12 24  1  0
 13 14  1  0
 13 44  1  0
 14 15  2  0
 14 45  1  0
 15 16  1  0
 15 23  1  0
 16 17  1  0
 16 22  1  0
 17 18  1  0
 17 46  1  0
 17 47  1  0
 18 19  1  0
 18 48  1  0
 18 49  1  0
 19 20  1  0
 19 21  1  0
 20 50  1  0
 20 51  1  0
 20 52  1  0
 21 22  1  0
 21 53  1  0
 21 54  1  0
 22 55  1  0
 22 56  1  0
 23 24  2  0
 23 57  1  0
 24 58  1  0
 25 26  1  0
 25 59  1  0
 26 27  1  0
 26 33  2  0
 27 28  2  0
 27 32  1  0
 28 29  1  0
 28 60  1  0
 29 30  2  0
 29 61  1  0
 30 31  1  0
 30 62  1  0
 31 32  2  0
 31 63  1  0
 32 64  1  0
 33 34  1  0
M  END

