
     RDKit          3D

 54 57  0  0  0  0  0  0  0  0999 V2000
    4.2194    0.3524   -3.8389 C   0  0  0  0  0  0  0  0  0  0  0  0
    4.6017   -0.0911   -2.4471 C   0  0  0  0  0  0  0  0  0  0  0  0
    4.9172    0.8330   -1.4417 C   0  0  0  0  0  0  0  0  0  0  0  0
    5.2601    0.4043   -0.1567 C   0  0  0  0  0  0  0  0  0  0  0  0
    5.2962   -0.9547    0.1807 C   0  0  0  0  0  0  0  0  0  0  0  0
    5.6661   -1.4333    1.5605 C   0  0  0  0  0  0  0  0  0  0  0  0
    4.9775   -1.8705   -0.8366 C   0  0  0  0  0  0  0  0  0  0  0  0
    5.1090   -3.2162   -0.5241 O   0  0  0  0  0  0  0  0  0  0  0  0
    4.1072   -4.1150   -0.7134 C   0  0  0  0  0  0  0  0  0  0  0  0
    4.4444   -5.4724   -0.5366 C   0  0  0  0  0  0  0  0  0  0  0  0
    3.4387   -6.4142   -0.6900 C   0  0  0  0  0  0  0  0  0  0  0  0
    2.1315   -5.9947   -1.0145 C   0  0  0  0  0  0  0  0  0  0  0  0
    1.0020   -6.9893   -1.1804 C   0  0  0  0  0  0  0  0  0  0  0  0
    0.5735   -7.6205    0.0624 N   0  0  0  0  0  0  0  0  0  0  0  0
    1.0786   -8.8173    0.4851 C   0  0  0  0  0  0  0  0  0  0  0  0
    1.9180   -9.4370   -0.1526 O   0  0  0  0  0  0  0  0  0  0  0  0
    0.4906   -9.3522    1.7883 C   0  0  0  0  0  0  0  0  0  0  0  0
    1.5228  -10.1356    2.6156 C   0  0  0  0  0  0  0  0  0  0  0  0
    0.9235  -10.8198    3.8252 C   0  0  0  0  0  0  0  0  0  0  0  0
    0.9581  -10.2111    5.0870 C   0  0  0  0  0  0  0  0  0  0  0  0
    0.3808  -10.8072    6.2270 C   0  0  0  0  0  0  0  0  0  0  0  0
   -0.2299  -12.0345    6.0505 C   0  0  0  0  0  0  0  0  0  0  0  0
   -0.2722  -12.6545    4.7986 C   0  0  0  0  0  0  0  0  0  0  0  0
    0.2902  -12.0778    3.6753 C   0  0  0  0  0  0  0  0  0  0  0  0
   -0.9463  -13.8405    4.9058 O   0  0  0  0  0  0  0  0  0  0  0  0
   -1.1735  -14.0412    6.2978 C   0  0  0  0  0  0  0  0  0  0  0  0
   -0.8786  -12.8191    6.9663 O   0  0  0  0  0  0  0  0  0  0  0  0
    1.9310   -4.6220   -1.1671 C   0  0  0  0  0  0  0  0  0  0  0  0
    2.8918   -3.7016   -1.0200 N   0  0  0  0  0  0  0  0  0  0  0  0
    4.6424   -1.4555   -2.1246 C   0  0  0  0  0  0  0  0  0  0  0  0
    4.3591    1.4357   -3.9697 H   0  0  0  0  0  0  0  0  0  0  0  0
    3.1617    0.1232   -4.0547 H   0  0  0  0  0  0  0  0  0  0  0  0
    4.8220   -0.1614   -4.6059 H   0  0  0  0  0  0  0  0  0  0  0  0
    4.8976    1.9031   -1.6659 H   0  0  0  0  0  0  0  0  0  0  0  0
    5.5066    1.1446    0.6099 H   0  0  0  0  0  0  0  0  0  0  0  0
    5.8827   -0.5852    2.2263 H   0  0  0  0  0  0  0  0  0  0  0  0
    6.5528   -2.0878    1.5358 H   0  0  0  0  0  0  0  0  0  0  0  0
    4.8528   -2.0245    2.0129 H   0  0  0  0  0  0  0  0  0  0  0  0
    5.4714   -5.7475   -0.2915 H   0  0  0  0  0  0  0  0  0  0  0  0
    3.6464   -7.4805   -0.5669 H   0  0  0  0  0  0  0  0  0  0  0  0
    1.3163   -7.8046   -1.8482 H   0  0  0  0  0  0  0  0  0  0  0  0
    0.1326   -6.4923   -1.6395 H   0  0  0  0  0  0  0  0  0  0  0  0
   -0.0348   -7.1006    0.6832 H   0  0  0  0  0  0  0  0  0  0  0  0
   -0.3432  -10.0226    1.5124 H   0  0  0  0  0  0  0  0  0  0  0  0
    0.0458   -8.5396    2.3868 H   0  0  0  0  0  0  0  0  0  0  0  0
    2.3235   -9.4487    2.9348 H   0  0  0  0  0  0  0  0  0  0  0  0
    1.9950  -10.8716    1.9473 H   0  0  0  0  0  0  0  0  0  0  0  0
    1.4571   -9.2445    5.1962 H   0  0  0  0  0  0  0  0  0  0  0  0
    0.4149  -10.3271    7.2062 H   0  0  0  0  0  0  0  0  0  0  0  0
    0.2508  -12.5841    2.7085 H   0  0  0  0  0  0  0  0  0  0  0  0
   -0.5057  -14.8430    6.6725 H   0  0  0  0  0  0  0  0  0  0  0  0
   -2.2281  -14.3135    6.4670 H   0  0  0  0  0  0  0  0  0  0  0  0
    0.9353   -4.2389   -1.4271 H   0  0  0  0  0  0  0  0  0  0  0  0
    4.4076   -2.2061   -2.8815 H   0  0  0  0  0  0  0  0  0  0  0  0
  1  2  1  0
  1 31  1  0
  1 32  1  0
  1 33  1  0
  2  3  2  0
  2 30  1  0
  3  4  1  0
  3 34  1  0
  4  5  2  0
  4 35  1  0
  5  6  1  0
  5  7  1  0
  6 36  1  0
  6 37  1  0
  6 38  1  0
  7  8  1  0
  7 30  2  0
  8  9  1  0
  9 10  2  0
  9 29  1  0
 10 11  1  0
 10 39  1  0
 11 12  2  0
 11 40  1  0
 12 13  1  0
 12 28  1  0
 13 14  1  0
 13 41  1  0
 13 42  1  0
 14 15  1  0
 14 43  1  0
 15 16  2  0
 15 17  1  0
 17 18  1  0
 17 44  1  0
 17 45  1  0
 18 19  1  0
 18 46  1  0
 18 47  1  0
 19 20  2  0
 19 24  1  0
 20 21  1  0
 20 48  1  0
 21 22  2  0
 21 49  1  0
 22 23  1  0
 22 27  1  0
 23 24  2  0
 23 25  1  0
 24 50  1  0
 25 26  1  0
 26 27  1  0
 26 51  1  0
 26 52  1  0
 28 29  2  0
 28 53  1  0
 30 54  1  0
M  END

