
     RDKit          3D

 43 44  0  0  0  0  0  0  0  0999 V2000
    2.8744    1.2762   -0.7129 C   0  0  0  0  0  0  0  0  0  0  0  0
    2.3674   -0.0497   -0.1334 C   0  0  1  0  0  0  0  0  0  0  0  0
    0.8455   -0.1412   -0.2935 C   0  0  0  0  0  0  0  0  0  0  0  0
    3.0370   -1.1881   -0.7648 N   0  0  0  0  0  0  0  0  0  0  0  0
    4.4959   -1.2006   -0.6618 C   0  0  0  0  0  0  0  0  0  0  0  0
    4.9073   -2.6178   -1.1102 C   0  0  0  0  0  0  0  0  0  0  0  0
    3.6095   -3.4639   -1.0113 C   0  0  2  0  0  0  0  0  0  0  0  0
    3.0526   -3.8782   -2.3856 C   0  0  0  0  0  0  0  0  0  0  0  0
    3.9592   -4.6970   -3.1768 N   0  0  0  0  0  0  0  0  0  0  0  0
    4.0784   -6.0395   -2.9643 C   0  0  0  0  0  0  0  0  0  0  0  0
    3.4355   -6.6263   -2.1053 O   0  0  0  0  0  0  0  0  0  0  0  0
    5.0409   -6.7820   -3.8621 C   0  0  0  0  0  0  0  0  0  0  0  0
    6.0912   -6.1688   -4.5654 C   0  0  0  0  0  0  0  0  0  0  0  0
    6.9487   -6.9257   -5.3613 C   0  0  0  0  0  0  0  0  0  0  0  0
    6.7664   -8.3111   -5.4834 C   0  0  0  0  0  0  0  0  0  0  0  0
    7.7296   -9.0676   -6.3587 C   0  0  0  0  0  0  0  0  0  0  0  0
    8.7884   -8.6180   -6.7093 O   0  0  0  0  0  0  0  0  0  0  0  0
    7.3460  -10.3023   -6.7528 O   0  0  0  0  0  0  0  0  0  0  0  0
    5.7339   -8.9288   -4.7579 C   0  0  0  0  0  0  0  0  0  0  0  0
    4.8858   -8.1729   -3.9511 C   0  0  0  0  0  0  0  0  0  0  0  0
    2.6289   -2.5134   -0.3044 C   0  0  0  0  0  0  0  0  0  0  0  0
    2.3223    2.1201   -0.2715 H   0  0  0  0  0  0  0  0  0  0  0  0
    2.7246    1.2979   -1.8050 H   0  0  0  0  0  0  0  0  0  0  0  0
    3.9425    1.4428   -0.5100 H   0  0  0  0  0  0  0  0  0  0  0  0
    2.5936   -0.0487    0.9621 H   0  0  0  0  0  0  0  0  0  0  0  0
    0.5756   -0.2078   -1.3604 H   0  0  0  0  0  0  0  0  0  0  0  0
    0.3655    0.7553    0.1281 H   0  0  0  0  0  0  0  0  0  0  0  0
    0.4186   -1.0129    0.2238 H   0  0  0  0  0  0  0  0  0  0  0  0
    4.8257   -1.0195    0.3882 H   0  0  0  0  0  0  0  0  0  0  0  0
    4.9513   -0.4149   -1.2823 H   0  0  0  0  0  0  0  0  0  0  0  0
    5.7104   -3.0181   -0.4742 H   0  0  0  0  0  0  0  0  0  0  0  0
    5.2971   -2.6150   -2.1403 H   0  0  0  0  0  0  0  0  0  0  0  0
    3.7620   -4.3796   -0.4220 H   0  0  0  0  0  0  0  0  0  0  0  0
    2.8131   -2.9727   -2.9637 H   0  0  0  0  0  0  0  0  0  0  0  0
    2.1225   -4.4487   -2.2357 H   0  0  0  0  0  0  0  0  0  0  0  0
    4.4224   -4.2821   -3.9735 H   0  0  0  0  0  0  0  0  0  0  0  0
    6.2705   -5.0948   -4.4732 H   0  0  0  0  0  0  0  0  0  0  0  0
    7.7787   -6.4624   -5.8977 H   0  0  0  0  0  0  0  0  0  0  0  0
    6.4274  -10.4712   -6.5014 H   0  0  0  0  0  0  0  0  0  0  0  0
    5.5989  -10.0145   -4.7856 H   0  0  0  0  0  0  0  0  0  0  0  0
    4.0932   -8.6410   -3.3648 H   0  0  0  0  0  0  0  0  0  0  0  0
    2.7237   -2.6143    0.8025 H   0  0  0  0  0  0  0  0  0  0  0  0
    1.5811   -2.7290   -0.5616 H   0  0  0  0  0  0  0  0  0  0  0  0
  1  2  1  0
  1 22  1  0
  1 23  1  0
  1 24  1  0
  2  3  1  0
  2  4  1  0
  2 25  1  1
  3 26  1  0
  3 27  1  0
  3 28  1  0
  4  5  1  0
  4 21  1  0
  5  6  1  0
  5 29  1  0
  5 30  1  0
  6  7  1  0
  6 31  1  0
  6 32  1  0
  7  8  1  0
  7 21  1  0
  7 33  1  1
  8  9  1  0
  8 34  1  0
  8 35  1  0
  9 10  1  0
  9 36  1  0
 10 11  2  0
 10 12  1  0
 12 13  2  0
 12 20  1  0
 13 14  1  0
 13 37  1  0
 14 15  2  0
 14 38  1  0
 15 16  1  0
 15 19  1  0
 16 17  2  0
 16 18  1  0
 18 39  1  0
 19 20  2  0
 19 40  1  0
 20 41  1  0
 21 42  1  0
 21 43  1  0
M  END

