
     RDKit          3D

 48 49  0  0  0  0  0  0  0  0999 V2000
    3.5561    0.6872   -1.0230 C   0  0  0  0  0  0  0  0  0  0  0  0
    2.6490    0.4474    0.1870 C   0  0  0  0  0  0  0  0  0  0  0  0
    2.9673   -0.7992    1.0391 C   0  0  1  0  0  0  0  0  0  0  0  0
    4.4200   -0.7900    1.5880 C   0  0  0  0  0  0  0  0  0  0  0  0
    4.8179    0.4199    2.4365 C   0  0  0  0  0  0  0  0  0  0  0  0
    1.9336   -0.9804    2.1796 C   0  0  0  0  0  0  0  0  0  0  0  0
    1.9581   -2.4754    2.5146 C   0  0  0  0  0  0  0  0  0  0  0  0
    2.4464   -3.1120    1.2782 N   0  0  0  0  0  0  0  0  0  0  0  0
    2.5426   -4.4710    1.2663 C   0  0  0  0  0  0  0  0  0  0  0  0
    2.2049   -5.1245    2.2421 O   0  0  0  0  0  0  0  0  0  0  0  0
    3.0440   -5.2169   -0.0271 C   0  0  1  0  0  0  0  0  0  0  0  0
    4.3097   -4.6343   -0.5048 C   0  0  0  0  0  0  0  0  0  0  0  0
    5.3271   -4.2256   -0.8850 N   0  0  0  0  0  0  0  0  0  0  0  0
    3.3426   -6.6903    0.3733 C   0  0  0  0  0  0  0  0  0  0  0  0
    3.6823   -7.6729   -0.7557 C   0  0  0  0  0  0  0  0  0  0  0  0
    2.4800   -8.0817   -1.6225 C   0  0  0  0  0  0  0  0  0  0  0  0
    2.1092   -7.1268   -2.7731 C   0  0  0  0  0  0  0  0  0  0  0  0
    2.3137   -5.6228   -2.5174 C   0  0  0  0  0  0  0  0  0  0  0  0
    1.9353   -5.0944   -1.1231 C   0  0  0  0  0  0  0  0  0  0  0  0
    2.7375   -2.1100    0.2467 C   0  0  0  0  0  0  0  0  0  0  0  0
    3.2160    1.5662   -1.5933 H   0  0  0  0  0  0  0  0  0  0  0  0
    3.5558   -0.1707   -1.7152 H   0  0  0  0  0  0  0  0  0  0  0  0
    4.6013    0.8732   -0.7306 H   0  0  0  0  0  0  0  0  0  0  0  0
    1.6034    0.3631   -0.1594 H   0  0  0  0  0  0  0  0  0  0  0  0
    2.6693    1.3363    0.8406 H   0  0  0  0  0  0  0  0  0  0  0  0
    5.1146   -0.8761    0.7359 H   0  0  0  0  0  0  0  0  0  0  0  0
    4.5773   -1.7097    2.1759 H   0  0  0  0  0  0  0  0  0  0  0  0
    4.7929    1.3590    1.8614 H   0  0  0  0  0  0  0  0  0  0  0  0
    5.8447    0.2995    2.8166 H   0  0  0  0  0  0  0  0  0  0  0  0
    4.1625    0.5514    3.3127 H   0  0  0  0  0  0  0  0  0  0  0  0
    0.9353   -0.6912    1.8110 H   0  0  0  0  0  0  0  0  0  0  0  0
    2.1451   -0.3538    3.0581 H   0  0  0  0  0  0  0  0  0  0  0  0
    0.9716   -2.8776    2.7929 H   0  0  0  0  0  0  0  0  0  0  0  0
    2.6376   -2.7210    3.3473 H   0  0  0  0  0  0  0  0  0  0  0  0
    2.4625   -7.0485    0.9263 H   0  0  0  0  0  0  0  0  0  0  0  0
    4.1626   -6.6705    1.1074 H   0  0  0  0  0  0  0  0  0  0  0  0
    4.0809   -8.5785   -0.2692 H   0  0  0  0  0  0  0  0  0  0  0  0
    4.5078   -7.2891   -1.3813 H   0  0  0  0  0  0  0  0  0  0  0  0
    1.6108   -8.2123   -0.9538 H   0  0  0  0  0  0  0  0  0  0  0  0
    2.6645   -9.0794   -2.0547 H   0  0  0  0  0  0  0  0  0  0  0  0
    1.0554   -7.3107   -3.0461 H   0  0  0  0  0  0  0  0  0  0  0  0
    2.6948   -7.3911   -3.6705 H   0  0  0  0  0  0  0  0  0  0  0  0
    1.7247   -5.0679   -3.2663 H   0  0  0  0  0  0  0  0  0  0  0  0
    3.3621   -5.3483   -2.7203 H   0  0  0  0  0  0  0  0  0  0  0  0
    1.0390   -5.6047   -0.7327 H   0  0  0  0  0  0  0  0  0  0  0  0
    1.6632   -4.0334   -1.2169 H   0  0  0  0  0  0  0  0  0  0  0  0
    1.8717   -1.9853   -0.4321 H   0  0  0  0  0  0  0  0  0  0  0  0
    3.6062   -2.3893   -0.3594 H   0  0  0  0  0  0  0  0  0  0  0  0
  1  2  1  0
  1 21  1  0
  1 22  1  0
  1 23  1  0
  3  2  1  6
  2 24  1  0
  2 25  1  0
  3  4  1  0
  3  6  1  0
  3 20  1  0
  4  5  1  0
  4 26  1  0
  4 27  1  0
  5 28  1  0
  5 29  1  0
  5 30  1  0
  6  7  1  0
  6 31  1  0
  6 32  1  0
  7  8  1  0
  7 33  1  0
  7 34  1  0
  8  9  1  0
  8 20  1  0
  9 10  2  0
  9 11  1  0
 11 12  1  6
 11 14  1  0
 11 19  1  0
 12 13  3  0
 14 15  1  0
 14 35  1  0
 14 36  1  0
 15 16  1  0
 15 37  1  0
 15 38  1  0
 16 17  1  0
 16 39  1  0
 16 40  1  0
 17 18  1  0
 17 41  1  0
 17 42  1  0
 18 19  1  0
 18 43  1  0
 18 44  1  0
 19 45  1  0
 19 46  1  0
 20 47  1  0
 20 48  1  0
M  END

