
     RDKit          3D

 41 42  0  0  0  0  0  0  0  0999 V2000
    2.0230    3.4826   -0.3895 C   0  0  0  0  0  0  0  0  0  0  0  0
    3.2753    2.7116   -0.8124 C   0  0  0  0  0  0  0  0  0  0  0  0
    3.0787    1.1954   -1.0100 C   0  0  1  0  0  0  0  0  0  0  0  0
    2.0416    0.8791   -2.0992 C   0  0  0  0  0  0  0  0  0  0  0  0
    4.4421    0.4858   -1.2337 C   0  0  1  0  0  0  0  0  0  0  0  0
    4.3603   -1.0449   -1.1046 C   0  0  0  0  0  0  0  0  0  0  0  0
    5.0402    0.9083   -2.4932 N   0  0  0  0  0  0  0  0  0  0  0  0
    6.3873    0.8371   -2.8015 C   0  0  0  0  0  0  0  0  0  0  0  0
    6.8022    1.0113   -4.1440 C   0  0  0  0  0  0  0  0  0  0  0  0
    8.1456    0.9891   -4.4931 C   0  0  0  0  0  0  0  0  0  0  0  0
    9.1515    0.7902   -3.5274 C   0  0  0  0  0  0  0  0  0  0  0  0
   10.5766    0.7625   -3.8744 C   0  0  0  0  0  0  0  0  0  0  0  0
   11.2023    0.9146   -5.0832 C   0  0  0  0  0  0  0  0  0  0  0  0
   12.5507    0.8068   -4.8809 O   0  0  0  0  0  0  0  0  0  0  0  0
   12.6911    0.5923   -3.5493 C   0  0  0  0  0  0  0  0  0  0  0  0
   14.0685    0.4309   -3.0106 C   0  0  0  0  0  0  0  0  0  0  0  0
   11.5643    0.5573   -2.9119 N   0  0  0  0  0  0  0  0  0  0  0  0
    8.7408    0.6123   -2.1962 C   0  0  0  0  0  0  0  0  0  0  0  0
    7.3951    0.6299   -1.8343 C   0  0  0  0  0  0  0  0  0  0  0  0
    2.2634    4.5382   -0.1856 H   0  0  0  0  0  0  0  0  0  0  0  0
    1.5804    3.0615    0.5296 H   0  0  0  0  0  0  0  0  0  0  0  0
    1.2425    3.4734   -1.1668 H   0  0  0  0  0  0  0  0  0  0  0  0
    4.0586    2.8598   -0.0483 H   0  0  0  0  0  0  0  0  0  0  0  0
    3.6854    3.1411   -1.7427 H   0  0  0  0  0  0  0  0  0  0  0  0
    2.6896    0.7856   -0.0592 H   0  0  0  0  0  0  0  0  0  0  0  0
    2.3085    1.3398   -3.0665 H   0  0  0  0  0  0  0  0  0  0  0  0
    1.0505    1.2715   -1.8276 H   0  0  0  0  0  0  0  0  0  0  0  0
    1.9249   -0.2038   -2.2584 H   0  0  0  0  0  0  0  0  0  0  0  0
    5.1012    0.8508   -0.4292 H   0  0  0  0  0  0  0  0  0  0  0  0
    3.7272   -1.4849   -1.8914 H   0  0  0  0  0  0  0  0  0  0  0  0
    3.9448   -1.3401   -0.1272 H   0  0  0  0  0  0  0  0  0  0  0  0
    5.3613   -1.4930   -1.1978 H   0  0  0  0  0  0  0  0  0  0  0  0
    4.4235    0.8637   -3.2960 H   0  0  0  0  0  0  0  0  0  0  0  0
    6.0456    1.1729   -4.9180 H   0  0  0  0  0  0  0  0  0  0  0  0
    8.4150    1.1292   -5.5435 H   0  0  0  0  0  0  0  0  0  0  0  0
   10.8741    1.0925   -6.1021 H   0  0  0  0  0  0  0  0  0  0  0  0
   14.5807   -0.4237   -3.4817 H   0  0  0  0  0  0  0  0  0  0  0  0
   14.0110    0.2627   -1.9281 H   0  0  0  0  0  0  0  0  0  0  0  0
   14.6774    1.3290   -3.2041 H   0  0  0  0  0  0  0  0  0  0  0  0
    9.5062    0.4525   -1.4346 H   0  0  0  0  0  0  0  0  0  0  0  0
    7.1316    0.4823   -0.7863 H   0  0  0  0  0  0  0  0  0  0  0  0
  1  2  1  0
  1 20  1  0
  1 21  1  0
  1 22  1  0
  2  3  1  0
  2 23  1  0
  2 24  1  0
  3  4  1  0
  3  5  1  0
  3 25  1  1
  4 26  1  0
  4 27  1  0
  4 28  1  0
  5  6  1  0
  5  7  1  0
  5 29  1  1
  6 30  1  0
  6 31  1  0
  6 32  1  0
  7  8  1  0
  7 33  1  0
  8  9  2  0
  8 19  1  0
  9 10  1  0
  9 34  1  0
 10 11  2  0
 10 35  1  0
 11 12  1  0
 11 18  1  0
 12 13  2  0
 12 17  1  0
 13 14  1  0
 13 36  1  0
 14 15  1  0
 15 16  1  0
 15 17  2  0
 16 37  1  0
 16 38  1  0
 16 39  1  0
 18 19  2  0
 18 40  1  0
 19 41  1  0
M  END

