
     RDKit          3D

 61 65  0  0  0  0  0  0  0  0999 V2000
   -0.5829    0.8403    0.7526 C   0  0  0  0  0  0  0  0  0  0  0  0
    0.8246    1.4281    0.9247 C   0  0  1  0  0  0  0  0  0  0  0  0
    1.8843    0.6992    0.0769 C   0  0  0  0  0  0  0  0  0  0  0  0
    1.6179    0.8281   -1.4296 C   0  0  0  0  0  0  0  0  0  0  0  0
    1.3351    2.2598   -1.8262 C   0  0  0  0  0  0  0  0  0  0  0  0
    1.0028    3.1925   -0.8756 C   0  0  0  0  0  0  0  0  0  0  0  0
    0.8637    4.8222   -1.5122 S   0  0  0  0  0  0  0  0  0  0  0  0
    1.3013    4.2627   -3.1122 C   0  0  0  0  0  0  0  0  0  0  0  0
    1.4999    5.0959   -4.1317 N   0  0  0  0  0  0  0  0  0  0  0  0
    1.9281    4.5057   -5.2407 C   0  0  0  0  0  0  0  0  0  0  0  0
    2.0803    3.1918   -5.4359 N   0  0  0  0  0  0  0  0  0  0  0  0
    1.8138    2.3479   -4.4361 C   0  0  0  0  0  0  0  0  0  0  0  0
    1.9033    0.9794   -4.7121 N   0  0  0  0  0  0  0  0  0  0  0  0
    2.6290    0.5959   -5.9269 C   0  0  0  0  0  0  0  0  0  0  0  0
    2.9755   -0.8901   -5.8815 C   0  0  0  0  0  0  0  0  0  0  0  0
    1.7686   -1.6913   -5.6954 N   0  0  0  0  0  0  0  0  0  0  0  0
    1.6837   -2.9103   -6.3424 C   0  0  0  0  0  0  0  0  0  0  0  0
    2.6107   -3.3497   -7.0067 O   0  0  0  0  0  0  0  0  0  0  0  0
    0.3916   -3.6804   -6.2529 C   0  0  0  0  0  0  0  0  0  0  0  0
   -0.8660   -3.0899   -6.4438 C   0  0  0  0  0  0  0  0  0  0  0  0
   -2.0231   -3.8733   -6.4572 C   0  0  0  0  0  0  0  0  0  0  0  0
   -1.9660   -5.2630   -6.2738 C   0  0  0  0  0  0  0  0  0  0  0  0
   -3.2362   -6.1032   -6.2821 C   0  0  1  0  0  0  0  0  0  0  0  0
   -3.2541   -7.1058   -7.4492 C   0  0  0  0  0  0  0  0  0  0  0  0
   -3.4669   -6.8094   -4.9347 C   0  0  0  0  0  0  0  0  0  0  0  0
   -0.6990   -5.8475   -6.0965 C   0  0  0  0  0  0  0  0  0  0  0  0
    0.4603   -5.0743   -6.1015 C   0  0  0  0  0  0  0  0  0  0  0  0
    1.0080   -1.3074   -4.5119 C   0  0  0  0  0  0  0  0  0  0  0  0
    0.6820    0.1836   -4.5482 C   0  0  0  0  0  0  0  0  0  0  0  0
    1.4732    2.8543   -3.1451 C   0  0  0  0  0  0  0  0  0  0  0  0
    0.8646    2.9372    0.6007 C   0  0  0  0  0  0  0  0  0  0  0  0
   -0.5869   -0.2456    0.9423 H   0  0  0  0  0  0  0  0  0  0  0  0
   -0.9793    1.0071   -0.2620 H   0  0  0  0  0  0  0  0  0  0  0  0
   -1.2904    1.3043    1.4583 H   0  0  0  0  0  0  0  0  0  0  0  0
    1.1044    1.3122    1.9857 H   0  0  0  0  0  0  0  0  0  0  0  0
    1.9249   -0.3667    0.3561 H   0  0  0  0  0  0  0  0  0  0  0  0
    2.8773    1.1228    0.3079 H   0  0  0  0  0  0  0  0  0  0  0  0
    0.7677    0.1778   -1.6996 H   0  0  0  0  0  0  0  0  0  0  0  0
    2.4742    0.4489   -2.0086 H   0  0  0  0  0  0  0  0  0  0  0  0
    2.1634    5.1566   -6.0912 H   0  0  0  0  0  0  0  0  0  0  0  0
    3.5455    1.1958   -5.9967 H   0  0  0  0  0  0  0  0  0  0  0  0
    2.0316    0.8161   -6.8325 H   0  0  0  0  0  0  0  0  0  0  0  0
    3.6880   -1.0812   -5.0557 H   0  0  0  0  0  0  0  0  0  0  0  0
    3.4567   -1.2092   -6.8139 H   0  0  0  0  0  0  0  0  0  0  0  0
   -0.9433   -2.0128   -6.6123 H   0  0  0  0  0  0  0  0  0  0  0  0
   -2.9926   -3.3939   -6.6213 H   0  0  0  0  0  0  0  0  0  0  0  0
   -4.0775   -5.4051   -6.4356 H   0  0  0  0  0  0  0  0  0  0  0  0
   -2.4460   -7.8495   -7.3539 H   0  0  0  0  0  0  0  0  0  0  0  0
   -3.1265   -6.5965   -8.4170 H   0  0  0  0  0  0  0  0  0  0  0  0
   -4.2093   -7.6551   -7.4756 H   0  0  0  0  0  0  0  0  0  0  0  0
   -2.6692   -7.5396   -4.7208 H   0  0  0  0  0  0  0  0  0  0  0  0
   -4.4238   -7.3564   -4.9408 H   0  0  0  0  0  0  0  0  0  0  0  0
   -3.4920   -6.0884   -4.1027 H   0  0  0  0  0  0  0  0  0  0  0  0
   -0.6125   -6.9291   -5.9630 H   0  0  0  0  0  0  0  0  0  0  0  0
    1.4404   -5.5444   -5.9961 H   0  0  0  0  0  0  0  0  0  0  0  0
    1.6066   -1.5212   -3.6046 H   0  0  0  0  0  0  0  0  0  0  0  0
    0.0840   -1.8922   -4.4444 H   0  0  0  0  0  0  0  0  0  0  0  0
    0.1609    0.4781   -3.6302 H   0  0  0  0  0  0  0  0  0  0  0  0
   -0.0090    0.3809   -5.3951 H   0  0  0  0  0  0  0  0  0  0  0  0
   -0.0376    3.4374    0.9940 H   0  0  0  0  0  0  0  0  0  0  0  0
    1.7173    3.4078    1.1240 H   0  0  0  0  0  0  0  0  0  0  0  0
  1  2  1  0
  1 32  1  0
  1 33  1  0
  1 34  1  0
  2  3  1  0
  2 31  1  0
  2 35  1  1
  3  4  1  0
  3 36  1  0
  3 37  1  0
  4  5  1  0
  4 38  1  0
  4 39  1  0
  5  6  2  0
  5 30  1  0
  6  7  1  0
  6 31  1  0
  7  8  1  0
  8  9  1  0
  8 30  2  0
  9 10  2  0
 10 11  1  0
 10 40  1  0
 11 12  2  0
 12 13  1  0
 12 30  1  0
 13 14  1  0
 13 29  1  0
 14 15  1  0
 14 41  1  0
 14 42  1  0
 15 16  1  0
 15 43  1  0
 15 44  1  0
 16 17  1  0
 16 28  1  0
 17 18  2  0
 17 19  1  0
 19 20  2  0
 19 27  1  0
 20 21  1  0
 20 45  1  0
 21 22  2  0
 21 46  1  0
 22 23  1  0
 22 26  1  0
 23 24  1  0
 23 25  1  0
 23 47  1  6
 24 48  1  0
 24 49  1  0
 24 50  1  0
 25 51  1  0
 25 52  1  0
 25 53  1  0
 26 27  2  0
 26 54  1  0
 27 55  1  0
 28 29  1  0
 28 56  1  0
 28 57  1  0
 29 58  1  0
 29 59  1  0
 31 60  1  0
 31 61  1  0
M  END

