
     RDKit          3D

 44 46  0  0  0  0  0  0  0  0999 V2000
   10.4267    0.6937   -7.1776 C   0  0  0  0  0  0  0  0  0  0  0  0
    9.6618    0.9405   -5.9674 N   0  0  0  0  0  0  0  0  0  0  0  0
   10.1022    2.0165   -5.1042 C   0  0  0  0  0  0  0  0  0  0  0  0
    8.4859    0.2778   -5.7147 C   0  0  0  0  0  0  0  0  0  0  0  0
    7.6700    0.6055   -4.5931 C   0  0  0  0  0  0  0  0  0  0  0  0
    6.5123   -0.1212   -4.3787 C   0  0  0  0  0  0  0  0  0  0  0  0
    6.1599   -1.1744   -5.2431 C   0  0  0  0  0  0  0  0  0  0  0  0
    4.8513   -1.8755   -5.0446 C   0  0  0  0  0  0  0  0  0  0  0  0
    3.9169   -1.2812   -4.5217 O   0  0  0  0  0  0  0  0  0  0  0  0
    4.7529   -3.1775   -5.5262 N   0  0  0  0  0  0  0  0  0  0  0  0
    5.8162   -4.1507   -5.2479 C   0  0  0  0  0  0  0  0  0  0  0  0
    5.4664   -4.9459   -3.9853 C   0  0  0  0  0  0  0  0  0  0  0  0
    4.2042   -5.5651   -4.0834 O   0  0  0  0  0  0  0  0  0  0  0  0
    3.1417   -4.6590   -4.3654 C   0  0  2  0  0  0  0  0  0  0  0  0
    3.0417   -3.9317   -3.5332 H   0  0  0  0  0  0  0  0  0  0  0  0
    1.8630   -5.4797   -4.5049 C   0  0  0  0  0  0  0  0  0  0  0  0
    0.6814   -4.6264   -4.9795 C   0  0  0  0  0  0  0  0  0  0  0  0
    1.0166   -3.8849   -6.2809 C   0  0  0  0  0  0  0  0  0  0  0  0
    2.2658   -3.0099   -6.1121 C   0  0  0  0  0  0  0  0  0  0  0  0
    3.4510   -3.8659   -5.6502 C   0  0  1  0  0  0  0  0  0  0  0  0
    3.6194   -4.6310   -6.4325 H   0  0  0  0  0  0  0  0  0  0  0  0
    7.0106   -1.3867   -6.3381 C   0  0  0  0  0  0  0  0  0  0  0  0
    8.1206   -0.6962   -6.5701 N   0  0  0  0  0  0  0  0  0  0  0  0
   11.4782    0.4619   -6.9338 H   0  0  0  0  0  0  0  0  0  0  0  0
   10.4159    1.5742   -7.8469 H   0  0  0  0  0  0  0  0  0  0  0  0
    9.9842   -0.1565   -7.7069 H   0  0  0  0  0  0  0  0  0  0  0  0
   11.1113    2.3271   -5.4065 H   0  0  0  0  0  0  0  0  0  0  0  0
   10.1545    1.6989   -4.0489 H   0  0  0  0  0  0  0  0  0  0  0  0
    9.4441    2.9050   -5.1587 H   0  0  0  0  0  0  0  0  0  0  0  0
    7.9321    1.4190   -3.9185 H   0  0  0  0  0  0  0  0  0  0  0  0
    5.8488    0.1184   -3.5447 H   0  0  0  0  0  0  0  0  0  0  0  0
    6.7779   -3.6424   -5.1073 H   0  0  0  0  0  0  0  0  0  0  0  0
    5.9127   -4.8387   -6.1059 H   0  0  0  0  0  0  0  0  0  0  0  0
    5.4993   -4.2629   -3.1103 H   0  0  0  0  0  0  0  0  0  0  0  0
    6.2046   -5.7471   -3.8199 H   0  0  0  0  0  0  0  0  0  0  0  0
    1.6455   -5.9732   -3.5439 H   0  0  0  0  0  0  0  0  0  0  0  0
    2.0632   -6.2852   -5.2335 H   0  0  0  0  0  0  0  0  0  0  0  0
    0.4206   -3.8880   -4.1997 H   0  0  0  0  0  0  0  0  0  0  0  0
   -0.2087   -5.2629   -5.1147 H   0  0  0  0  0  0  0  0  0  0  0  0
    0.1658   -3.2576   -6.5936 H   0  0  0  0  0  0  0  0  0  0  0  0
    1.1748   -4.6219   -7.0901 H   0  0  0  0  0  0  0  0  0  0  0  0
    2.0709   -2.2165   -5.3796 H   0  0  0  0  0  0  0  0  0  0  0  0
    2.5285   -2.5103   -7.0595 H   0  0  0  0  0  0  0  0  0  0  0  0
    6.7557   -2.1490   -7.0842 H   0  0  0  0  0  0  0  0  0  0  0  0
  1  2  1  0
  1 24  1  0
  1 25  1  0
  1 26  1  0
  2  3  1  0
  2  4  1  0
  3 27  1  0
  3 28  1  0
  3 29  1  0
  4  5  2  0
  4 23  1  0
  5  6  1  0
  5 30  1  0
  6  7  2  0
  6 31  1  0
  7  8  1  0
  7 22  1  0
  8  9  2  0
  8 10  1  0
 10 11  1  0
 10 20  1  0
 11 12  1  0
 11 32  1  0
 11 33  1  0
 12 13  1  0
 12 34  1  0
 12 35  1  0
 13 14  1  0
 14 15  1  1
 14 16  1  0
 14 20  1  0
 16 17  1  0
 16 36  1  0
 16 37  1  0
 17 18  1  0
 17 38  1  0
 17 39  1  0
 18 19  1  0
 18 40  1  0
 18 41  1  0
 19 20  1  0
 19 42  1  0
 19 43  1  0
 20 21  1  6
 22 23  2  0
 22 44  1  0
M  END

