
     RDKit          3D

 47 49  0  0  0  0  0  0  0  0999 V2000
    3.4189    2.7132    1.3274 C   0  0  0  0  0  0  0  0  0  0  0  0
    3.3655    1.3740    0.5968 C   0  0  0  0  0  0  0  0  0  0  0  0
    2.9928    0.2240    1.4202 N   0  0  0  0  0  0  0  0  0  0  0  0
    2.0521    0.4215    2.5134 C   0  0  0  0  0  0  0  0  0  0  0  0
    0.5707    0.3818    2.1055 C   0  0  0  0  0  0  0  0  0  0  0  0
   -0.3935    0.6073    3.2775 C   0  0  0  0  0  0  0  0  0  0  0  0
   -0.2686    1.9104    3.9085 N   0  0  0  0  0  0  0  0  0  0  0  0
   -1.0052    2.9825    3.5245 C   0  0  0  0  0  0  0  0  0  0  0  0
   -1.8344    2.9748    2.6255 O   0  0  0  0  0  0  0  0  0  0  0  0
   -0.7210    4.2399    4.3197 C   0  0  0  0  0  0  0  0  0  0  0  0
   -1.4504    5.4291    4.0143 C   0  0  0  0  0  0  0  0  0  0  0  0
   -1.2534    6.5523    4.6636 N   0  0  0  0  0  0  0  0  0  0  0  0
   -0.3167    6.5460    5.6520 C   0  0  0  0  0  0  0  0  0  0  0  0
   -0.0584    7.7319    6.3904 C   0  0  0  0  0  0  0  0  0  0  0  0
    0.8897    7.7296    7.3921 C   0  0  0  0  0  0  0  0  0  0  0  0
    1.6176    6.5487    7.6987 C   0  0  0  0  0  0  0  0  0  0  0  0
    1.3904    5.3817    7.0003 C   0  0  0  0  0  0  0  0  0  0  0  0
    0.4195    5.3539    5.9626 C   0  0  0  0  0  0  0  0  0  0  0  0
    0.1896    4.2076    5.2697 N   0  0  0  0  0  0  0  0  0  0  0  0
    3.1827   -1.0571    0.8949 C   0  0  0  0  0  0  0  0  0  0  0  0
    3.7622   -1.2602   -0.3832 C   0  0  0  0  0  0  0  0  0  0  0  0
    3.9932   -2.5448   -0.8792 C   0  0  0  0  0  0  0  0  0  0  0  0
    3.6483   -3.6795   -0.1434 C   0  0  0  0  0  0  0  0  0  0  0  0
    3.0555   -3.4974    1.1094 C   0  0  0  0  0  0  0  0  0  0  0  0
    2.8204   -2.2218    1.6196 C   0  0  0  0  0  0  0  0  0  0  0  0
    3.8264    3.4730    0.6425 H   0  0  0  0  0  0  0  0  0  0  0  0
    4.0789    2.6678    2.2084 H   0  0  0  0  0  0  0  0  0  0  0  0
    2.4295    3.0688    1.6523 H   0  0  0  0  0  0  0  0  0  0  0  0
    4.3711    1.1791    0.1919 H   0  0  0  0  0  0  0  0  0  0  0  0
    2.6971    1.4695   -0.2855 H   0  0  0  0  0  0  0  0  0  0  0  0
    2.2705    1.3876    2.9868 H   0  0  0  0  0  0  0  0  0  0  0  0
    2.2426   -0.3284    3.2979 H   0  0  0  0  0  0  0  0  0  0  0  0
    0.3406   -0.5943    1.6467 H   0  0  0  0  0  0  0  0  0  0  0  0
    0.3747    1.1460    1.3347 H   0  0  0  0  0  0  0  0  0  0  0  0
   -0.2401   -0.1645    4.0511 H   0  0  0  0  0  0  0  0  0  0  0  0
   -1.4288    0.5168    2.9169 H   0  0  0  0  0  0  0  0  0  0  0  0
    0.3752    2.0683    4.6781 H   0  0  0  0  0  0  0  0  0  0  0  0
   -2.1961    5.4003    3.2142 H   0  0  0  0  0  0  0  0  0  0  0  0
   -0.6321    8.6249    6.1343 H   0  0  0  0  0  0  0  0  0  0  0  0
    1.0869    8.6427    7.9592 H   0  0  0  0  0  0  0  0  0  0  0  0
    2.3638    6.5706    8.4968 H   0  0  0  0  0  0  0  0  0  0  0  0
    1.9368    4.4616    7.2176 H   0  0  0  0  0  0  0  0  0  0  0  0
    4.0327   -0.4131   -1.0105 H   0  0  0  0  0  0  0  0  0  0  0  0
    4.4455   -2.6515   -1.8693 H   0  0  0  0  0  0  0  0  0  0  0  0
    3.8278   -4.6816   -0.5388 H   0  0  0  0  0  0  0  0  0  0  0  0
    2.7652   -4.3651    1.7085 H   0  0  0  0  0  0  0  0  0  0  0  0
    2.3557   -2.1396    2.6012 H   0  0  0  0  0  0  0  0  0  0  0  0
  1  2  1  0
  1 26  1  0
  1 27  1  0
  1 28  1  0
  2  3  1  0
  2 29  1  0
  2 30  1  0
  3  4  1  0
  3 20  1  0
  4  5  1  0
  4 31  1  0
  4 32  1  0
  5  6  1  0
  5 33  1  0
  5 34  1  0
  6  7  1  0
  6 35  1  0
  6 36  1  0
  7  8  1  0
  7 37  1  0
  8  9  2  0
  8 10  1  0
 10 11  2  0
 10 19  1  0
 11 12  1  0
 11 38  1  0
 12 13  2  0
 13 14  1  0
 13 18  1  0
 14 15  2  0
 14 39  1  0
 15 16  1  0
 15 40  1  0
 16 17  2  0
 16 41  1  0
 17 18  1  0
 17 42  1  0
 18 19  2  0
 20 21  2  0
 20 25  1  0
 21 22  1  0
 21 43  1  0
 22 23  2  0
 22 44  1  0
 23 24  1  0
 23 45  1  0
 24 25  2  0
 24 46  1  0
 25 47  1  0
M  END

