
     RDKit          3D

 25 25  0  0  0  0  0  0  0  0999 V2000
    1.5415    1.5657   -0.4484 C   0  0  0  0  0  0  0  0  0  0  0  0
    2.5050    0.2232    0.3143 S   0  0  0  0  0  0  0  0  0  0  0  0
    3.1564   -0.6273   -1.1995 C   0  0  1  0  0  0  0  0  0  0  0  0
    4.3154   -1.5538   -0.7871 C   0  0  0  0  0  0  0  0  0  0  0  0
    3.8102   -2.8188   -0.0681 C   0  0  0  0  0  0  0  0  0  0  0  0
    2.7931   -3.5545   -0.8172 N   0  0  0  0  0  0  0  0  0  0  0  0
    3.3138   -4.3853   -1.8870 C   0  0  0  0  0  0  0  0  0  0  0  0
    2.3391   -5.3986   -2.3292 C   0  0  0  0  0  0  0  0  0  0  0  0
    1.5682   -6.1813   -2.6960 N   0  0  0  0  0  0  0  0  0  0  0  0
    1.6646   -2.6945   -1.1822 C   0  0  0  0  0  0  0  0  0  0  0  0
    2.0817   -1.4317   -1.9545 C   0  0  0  0  0  0  0  0  0  0  0  0
    1.1449    2.1738    0.3772 H   0  0  0  0  0  0  0  0  0  0  0  0
    0.6932    1.1870   -1.0384 H   0  0  0  0  0  0  0  0  0  0  0  0
    2.1768    2.2037   -1.0827 H   0  0  0  0  0  0  0  0  0  0  0  0
    3.5470    0.1750   -1.8464 H   0  0  0  0  0  0  0  0  0  0  0  0
    5.0296   -1.0116   -0.1465 H   0  0  0  0  0  0  0  0  0  0  0  0
    4.8656   -1.8407   -1.7013 H   0  0  0  0  0  0  0  0  0  0  0  0
    3.3690   -2.5343    0.9028 H   0  0  0  0  0  0  0  0  0  0  0  0
    4.6514   -3.4946    0.1562 H   0  0  0  0  0  0  0  0  0  0  0  0
    4.2018   -4.9245   -1.5168 H   0  0  0  0  0  0  0  0  0  0  0  0
    3.6459   -3.8400   -2.7999 H   0  0  0  0  0  0  0  0  0  0  0  0
    1.1611   -2.3904   -0.2496 H   0  0  0  0  0  0  0  0  0  0  0  0
    0.9359   -3.2832   -1.7610 H   0  0  0  0  0  0  0  0  0  0  0  0
    1.1956   -0.8098   -2.1611 H   0  0  0  0  0  0  0  0  0  0  0  0
    2.4916   -1.7104   -2.9432 H   0  0  0  0  0  0  0  0  0  0  0  0
  1  2  1  0
  1 12  1  0
  1 13  1  0
  1 14  1  0
  2  3  1  0
  3  4  1  0
  3 11  1  0
  3 15  1  6
  4  5  1  0
  4 16  1  0
  4 17  1  0
  5  6  1  0
  5 18  1  0
  5 19  1  0
  6  7  1  0
  6 10  1  0
  7  8  1  0
  7 20  1  0
  7 21  1  0
  8  9  3  0
 10 11  1  0
 10 22  1  0
 10 23  1  0
 11 24  1  0
 11 25  1  0
M  END

