
     RDKit          3D

 31 32  0  0  0  0  0  0  0  0999 V2000
    5.0466   -2.3723    0.1940 C   0  0  0  0  0  0  0  0  0  0  0  0
    4.4303   -1.0011    0.0491 C   0  0  0  0  0  0  0  0  0  0  0  0
    5.2271    0.1414    0.1830 C   0  0  0  0  0  0  0  0  0  0  0  0
    4.6780    1.4181    0.0533 C   0  0  0  0  0  0  0  0  0  0  0  0
    5.7990    2.9514    0.2426 Br  0  0  0  0  0  0  0  0  0  0  0  0
    3.3187    1.5736   -0.2131 C   0  0  0  0  0  0  0  0  0  0  0  0
    2.5054    0.4479   -0.3505 C   0  0  0  0  0  0  0  0  0  0  0  0
    3.0470   -0.8426   -0.2222 C   0  0  0  0  0  0  0  0  0  0  0  0
    2.2732   -2.0127   -0.3509 N   0  0  0  0  0  0  0  0  0  0  0  0
    0.9145   -2.1253   -0.6152 C   0  0  0  0  0  0  0  0  0  0  0  0
    0.1683   -1.1791   -0.7805 O   0  0  0  0  0  0  0  0  0  0  0  0
    0.5038   -3.4526   -0.6695 N   0  0  0  0  0  0  0  0  0  0  0  0
   -0.7857   -3.9558   -0.9148 C   0  0  0  0  0  0  0  0  0  0  0  0
   -1.9108   -3.1465   -1.1572 C   0  0  0  0  0  0  0  0  0  0  0  0
   -3.1482   -3.7496   -1.3907 C   0  0  0  0  0  0  0  0  0  0  0  0
   -3.3071   -5.1379   -1.3915 C   0  0  0  0  0  0  0  0  0  0  0  0
   -2.1810   -5.9270   -1.1490 C   0  0  0  0  0  0  0  0  0  0  0  0
   -2.3437   -7.8294   -1.1388 Br  0  0  0  0  0  0  0  0  0  0  0  0
   -0.9319   -5.3567   -0.9125 C   0  0  0  0  0  0  0  0  0  0  0  0
    6.1232   -2.3004    0.4001 H   0  0  0  0  0  0  0  0  0  0  0  0
    4.9339   -2.9770   -0.7244 H   0  0  0  0  0  0  0  0  0  0  0  0
    4.5961   -2.9437    1.0259 H   0  0  0  0  0  0  0  0  0  0  0  0
    6.2926    0.0283    0.3918 H   0  0  0  0  0  0  0  0  0  0  0  0
    2.8856    2.5700   -0.3152 H   0  0  0  0  0  0  0  0  0  0  0  0
    1.4444    0.5589   -0.5584 H   0  0  0  0  0  0  0  0  0  0  0  0
    2.7917   -2.8732   -0.2364 H   0  0  0  0  0  0  0  0  0  0  0  0
    1.2048   -4.1665   -0.5122 H   0  0  0  0  0  0  0  0  0  0  0  0
   -1.8022   -2.0654   -1.1591 H   0  0  0  0  0  0  0  0  0  0  0  0
   -4.0173   -3.1138   -1.5783 H   0  0  0  0  0  0  0  0  0  0  0  0
   -4.2792   -5.5965   -1.5754 H   0  0  0  0  0  0  0  0  0  0  0  0
   -0.0698   -6.0014   -0.7260 H   0  0  0  0  0  0  0  0  0  0  0  0
  1  2  1  0
  1 20  1  0
  1 21  1  0
  1 22  1  0
  2  3  2  0
  2  8  1  0
  3  4  1  0
  3 23  1  0
  4  5  1  0
  4  6  2  0
  6  7  1  0
  6 24  1  0
  7  8  2  0
  7 25  1  0
  8  9  1  0
  9 10  1  0
  9 26  1  0
 10 11  2  0
 10 12  1  0
 12 13  1  0
 12 27  1  0
 13 14  2  0
 13 19  1  0
 14 15  1  0
 14 28  1  0
 15 16  2  0
 15 29  1  0
 16 17  1  0
 16 30  1  0
 17 18  1  0
 17 19  2  0
 19 31  1  0
M  END

