
     RDKit          3D

 37 38  0  0  0  0  0  0  0  0999 V2000
   -0.1280   -1.0281    1.8230 C   0  0  0  0  0  0  0  0  0  0  0  0
    0.8413   -2.0932    2.3628 C   0  0  0  0  0  0  0  0  0  0  0  0
    2.2682   -1.9087    1.9351 C   0  0  0  0  0  0  0  0  0  0  0  0
    3.3261   -1.3032    2.6225 C   0  0  0  0  0  0  0  0  0  0  0  0
    3.3031   -0.6913    3.9659 C   0  0  0  0  0  0  0  0  0  0  0  0
    3.4687   -2.0300    5.4678 Br  0  0  0  0  0  0  0  0  0  0  0  0
    4.4304   -1.4185    1.7404 C   0  0  0  0  0  0  0  0  0  0  0  0
    4.0920   -2.0212    0.6105 N   0  0  0  0  0  0  0  0  0  0  0  0
    2.7825   -2.3125    0.7365 N   0  0  0  0  0  0  0  0  0  0  0  0
    2.1120   -3.0223   -0.3615 C   0  0  1  0  0  0  0  0  0  0  0  0
    2.1223   -2.1335   -1.6167 C   0  0  0  0  0  0  0  0  0  0  0  0
    1.5089   -2.7328   -2.8904 C   0  0  0  0  0  0  0  0  0  0  0  0
    2.3369   -3.8672   -3.5173 C   0  0  0  0  0  0  0  0  0  0  0  0
    2.1149   -5.2751   -2.9327 C   0  0  0  0  0  0  0  0  0  0  0  0
    1.8765   -5.3611   -1.4140 C   0  0  0  0  0  0  0  0  0  0  0  0
    2.7195   -4.4289   -0.5287 C   0  0  0  0  0  0  0  0  0  0  0  0
   -1.1491   -1.2036    2.1973 H   0  0  0  0  0  0  0  0  0  0  0  0
   -0.1676   -1.0342    0.7221 H   0  0  0  0  0  0  0  0  0  0  0  0
    0.1796   -0.0178    2.1354 H   0  0  0  0  0  0  0  0  0  0  0  0
    0.4889   -3.0971    2.0718 H   0  0  0  0  0  0  0  0  0  0  0  0
    0.8217   -2.0857    3.4637 H   0  0  0  0  0  0  0  0  0  0  0  0
    2.3668   -0.1708    4.1961 H   0  0  0  0  0  0  0  0  0  0  0  0
    4.1467   -0.0110    4.1259 H   0  0  0  0  0  0  0  0  0  0  0  0
    5.4548   -1.0774    1.8959 H   0  0  0  0  0  0  0  0  0  0  0  0
    1.0678   -3.1532   -0.0369 H   0  0  0  0  0  0  0  0  0  0  0  0
    3.1691   -1.8513   -1.8164 H   0  0  0  0  0  0  0  0  0  0  0  0
    1.5957   -1.1974   -1.3632 H   0  0  0  0  0  0  0  0  0  0  0  0
    1.4277   -1.9133   -3.6238 H   0  0  0  0  0  0  0  0  0  0  0  0
    0.4709   -3.0666   -2.7057 H   0  0  0  0  0  0  0  0  0  0  0  0
    3.4032   -3.5940   -3.4318 H   0  0  0  0  0  0  0  0  0  0  0  0
    2.1341   -3.9126   -4.6004 H   0  0  0  0  0  0  0  0  0  0  0  0
    2.9869   -5.8972   -3.1992 H   0  0  0  0  0  0  0  0  0  0  0  0
    1.2528   -5.7473   -3.4356 H   0  0  0  0  0  0  0  0  0  0  0  0
    2.0532   -6.4035   -1.1015 H   0  0  0  0  0  0  0  0  0  0  0  0
    0.8092   -5.1750   -1.1964 H   0  0  0  0  0  0  0  0  0  0  0  0
    3.7536   -4.3415   -0.9001 H   0  0  0  0  0  0  0  0  0  0  0  0
    2.7962   -4.8662    0.4802 H   0  0  0  0  0  0  0  0  0  0  0  0
  1  2  1  0
  1 17  1  0
  1 18  1  0
  1 19  1  0
  2  3  1  0
  2 20  1  0
  2 21  1  0
  3  4  2  0
  3  9  1  0
  4  5  1  0
  4  7  1  0
  5  6  1  0
  5 22  1  0
  5 23  1  0
  7  8  2  0
  7 24  1  0
  8  9  1  0
  9 10  1  0
 10 11  1  0
 10 16  1  0
 10 25  1  1
 11 12  1  0
 11 26  1  0
 11 27  1  0
 12 13  1  0
 12 28  1  0
 12 29  1  0
 13 14  1  0
 13 30  1  0
 13 31  1  0
 14 15  1  0
 14 32  1  0
 14 33  1  0
 15 16  1  0
 15 34  1  0
 15 35  1  0
 16 36  1  0
 16 37  1  0
M  END

