
     RDKit          3D

 42 45  0  0  0  0  0  0  0  0999 V2000
    0.5363    0.5488    0.1064 O   0  0  0  0  0  0  0  0  0  0  0  0
    1.7360    0.3265    0.1411 C   0  0  0  0  0  0  0  0  0  0  0  0
    2.3406   -0.4842   -0.7964 N   0  0  0  0  0  0  0  0  0  0  0  0
    1.6924   -1.0926   -1.8605 C   0  0  0  0  0  0  0  0  0  0  0  0
    2.3325   -1.8635   -2.6872 N   0  0  0  0  0  0  0  0  0  0  0  0
    1.4988   -2.3583   -3.6698 C   0  0  0  0  0  0  0  0  0  0  0  0
    2.0550   -3.2584   -4.7027 C   0  0  0  0  0  0  0  0  0  0  0  0
    3.4167   -3.6106   -4.6636 C   0  0  0  0  0  0  0  0  0  0  0  0
    3.9625   -4.4600   -5.6278 C   0  0  0  0  0  0  0  0  0  0  0  0
    3.1616   -4.9752   -6.6510 C   0  0  0  0  0  0  0  0  0  0  0  0
    1.8060   -4.6318   -6.7008 C   0  0  0  0  0  0  0  0  0  0  0  0
    1.2590   -3.7833   -5.7382 C   0  0  0  0  0  0  0  0  0  0  0  0
    0.1940   -1.9332   -3.5613 C   0  0  0  0  0  0  0  0  0  0  0  0
   -0.0170   -0.8883   -2.1908 S   0  0  0  0  0  0  0  0  0  0  0  0
    2.6321    0.8931    1.2015 C   0  0  0  0  0  0  0  0  0  0  0  0
    2.0321    1.3334    2.3908 C   0  0  0  0  0  0  0  0  0  0  0  0
    2.8224    1.8554    3.4131 C   0  0  0  0  0  0  0  0  0  0  0  0
    4.2084    1.9520    3.2655 C   0  0  0  0  0  0  0  0  0  0  0  0
    4.8084    1.5377    2.0675 C   0  0  0  0  0  0  0  0  0  0  0  0
    6.2225    1.6409    1.8918 N   0  0  0  0  0  0  0  0  0  0  0  0
    6.9992    2.7189    2.3721 C   0  0  0  0  0  0  0  0  0  0  0  0
    6.5736    3.6602    2.9899 O   0  0  0  0  0  0  0  0  0  0  0  0
    8.4458    2.4750    1.9643 C   0  0  0  0  0  0  0  0  0  0  0  0
    8.4546    1.1095    1.2779 C   0  0  0  0  0  0  0  0  0  0  0  0
    6.9977    0.6730    1.2189 C   0  0  0  0  0  0  0  0  0  0  0  0
    6.5656   -0.3231    0.6955 O   0  0  0  0  0  0  0  0  0  0  0  0
    4.0177    1.0171    1.0350 C   0  0  0  0  0  0  0  0  0  0  0  0
    3.3164   -0.7491   -0.7021 H   0  0  0  0  0  0  0  0  0  0  0  0
    4.0359   -3.2054   -3.8624 H   0  0  0  0  0  0  0  0  0  0  0  0
    5.0230   -4.7216   -5.5786 H   0  0  0  0  0  0  0  0  0  0  0  0
    3.5891   -5.6403   -7.4058 H   0  0  0  0  0  0  0  0  0  0  0  0
    1.1693   -5.0279   -7.4962 H   0  0  0  0  0  0  0  0  0  0  0  0
    0.1987   -3.5280   -5.7971 H   0  0  0  0  0  0  0  0  0  0  0  0
   -0.6534   -2.1746   -4.1987 H   0  0  0  0  0  0  0  0  0  0  0  0
    0.9485    1.2522    2.4909 H   0  0  0  0  0  0  0  0  0  0  0  0
    2.3593    2.1905    4.3441 H   0  0  0  0  0  0  0  0  0  0  0  0
    4.8183    2.3659    4.0665 H   0  0  0  0  0  0  0  0  0  0  0  0
    9.0779    2.5343    2.8628 H   0  0  0  0  0  0  0  0  0  0  0  0
    8.7561    3.3010    1.3053 H   0  0  0  0  0  0  0  0  0  0  0  0
    9.0163    0.3414    1.8322 H   0  0  0  0  0  0  0  0  0  0  0  0
    8.8594    1.1188    0.2549 H   0  0  0  0  0  0  0  0  0  0  0  0
    4.4979    0.7225    0.1044 H   0  0  0  0  0  0  0  0  0  0  0  0
  1  2  2  0
  2  3  1  0
  2 15  1  0
  3  4  1  0
  3 28  1  0
  4  5  2  0
  4 14  1  0
  5  6  1  0
  6  7  1  0
  6 13  2  0
  7  8  2  0
  7 12  1  0
  8  9  1  0
  8 29  1  0
  9 10  2  0
  9 30  1  0
 10 11  1  0
 10 31  1  0
 11 12  2  0
 11 32  1  0
 12 33  1  0
 13 14  1  0
 13 34  1  0
 15 16  2  0
 15 27  1  0
 16 17  1  0
 16 35  1  0
 17 18  2  0
 17 36  1  0
 18 19  1  0
 18 37  1  0
 19 20  1  0
 19 27  2  0
 20 21  1  0
 20 25  1  0
 21 22  2  0
 21 23  1  0
 23 24  1  0
 23 38  1  0
 23 39  1  0
 24 25  1  0
 24 40  1  0
 24 41  1  0
 25 26  2  0
 27 42  1  0
M  END

