
     RDKit          3D

 33 35  0  0  0  0  0  0  0  0999 V2000
    1.0429   -0.1474   -0.1296 O   0  0  0  0  0  0  0  0  0  0  0  0
    2.2562   -0.0897   -0.1644 C   0  0  0  0  0  0  0  0  0  0  0  0
    3.0137    0.1307   -1.4674 C   0  0  0  0  0  0  0  0  0  0  0  0
    3.1977    1.6161   -1.7344 C   0  0  0  0  0  0  0  0  0  0  0  0
    4.4425    2.2391   -1.5779 C   0  0  0  0  0  0  0  0  0  0  0  0
    4.6016    3.6065   -1.8185 C   0  0  0  0  0  0  0  0  0  0  0  0
    3.5053    4.3839   -2.2147 C   0  0  0  0  0  0  0  0  0  0  0  0
    3.6001    5.7168   -2.4644 O   0  0  0  0  0  0  0  0  0  0  0  0
    2.2499    3.7756   -2.3639 C   0  0  0  0  0  0  0  0  0  0  0  0
    2.1050    2.4115   -2.1225 C   0  0  0  0  0  0  0  0  0  0  0  0
    3.0542   -0.1962    1.1174 C   0  0  0  0  0  0  0  0  0  0  0  0
    2.3421   -0.2731    2.3489 C   0  0  0  0  0  0  0  0  0  0  0  0
    3.0555   -0.3780    3.5187 C   0  0  0  0  0  0  0  0  0  0  0  0
    4.4762   -0.4116    3.4732 C   0  0  0  0  0  0  0  0  0  0  0  0
    5.2949   -0.5208    4.6295 C   0  0  0  0  0  0  0  0  0  0  0  0
    6.6694   -0.5511    4.5132 C   0  0  0  0  0  0  0  0  0  0  0  0
    7.2848   -0.4744    3.2365 C   0  0  0  0  0  0  0  0  0  0  0  0
    6.5185   -0.3675    2.0955 C   0  0  0  0  0  0  0  0  0  0  0  0
    5.0977   -0.3316    2.1810 C   0  0  0  0  0  0  0  0  0  0  0  0
    4.3709   -0.2245    1.0377 N   0  0  0  0  0  0  0  0  0  0  0  0
    2.4050   -0.3240   -2.2631 H   0  0  0  0  0  0  0  0  0  0  0  0
    3.9898   -0.3666   -1.4204 H   0  0  0  0  0  0  0  0  0  0  0  0
    5.3027    1.6471   -1.2565 H   0  0  0  0  0  0  0  0  0  0  0  0
    5.5845    4.0735   -1.6960 H   0  0  0  0  0  0  0  0  0  0  0  0
    4.5118    6.0049   -2.3262 H   0  0  0  0  0  0  0  0  0  0  0  0
    1.4012    4.3905   -2.6708 H   0  0  0  0  0  0  0  0  0  0  0  0
    1.1204    1.9493   -2.2333 H   0  0  0  0  0  0  0  0  0  0  0  0
    1.2524   -0.2460    2.3221 H   0  0  0  0  0  0  0  0  0  0  0  0
    2.5474   -0.4368    4.4855 H   0  0  0  0  0  0  0  0  0  0  0  0
    4.8181   -0.5809    5.6117 H   0  0  0  0  0  0  0  0  0  0  0  0
    7.2920   -0.6356    5.4073 H   0  0  0  0  0  0  0  0  0  0  0  0
    8.3749   -0.5014    3.1625 H   0  0  0  0  0  0  0  0  0  0  0  0
    6.9689   -0.3092    1.1028 H   0  0  0  0  0  0  0  0  0  0  0  0
  1  2  2  0
  2  3  1  0
  2 11  1  0
  3  4  1  0
  3 21  1  0
  3 22  1  0
  4  5  2  0
  4 10  1  0
  5  6  1  0
  5 23  1  0
  6  7  2  0
  6 24  1  0
  7  8  1  0
  7  9  1  0
  8 25  1  0
  9 10  2  0
  9 26  1  0
 10 27  1  0
 11 12  2  0
 11 20  1  0
 12 13  1  0
 12 28  1  0
 13 14  2  0
 13 29  1  0
 14 15  1  0
 14 19  1  0
 15 16  2  0
 15 30  1  0
 16 17  1  0
 16 31  1  0
 17 18  2  0
 17 32  1  0
 18 19  1  0
 18 33  1  0
 19 20  2  0
M  END

