
     RDKit          3D

 48 49  0  0  0  0  0  0  0  0999 V2000
    0.6657   -0.3840   -0.0319 C   0  0  0  0  0  0  0  0  0  0  0  0
    2.1334   -0.0718    0.2950 C   0  0  1  0  0  0  0  0  0  0  0  0
    2.2432    1.1643    1.2028 C   0  0  0  0  0  0  0  0  0  0  0  0
    3.6762    1.6815    1.4203 C   0  0  0  0  0  0  0  0  0  0  0  0
    3.7312    2.9095    2.3017 C   0  0  0  0  0  0  0  0  0  0  0  0
    3.8845    2.7972    3.6930 C   0  0  0  0  0  0  0  0  0  0  0  0
    3.8930    3.9295    4.5114 C   0  0  0  0  0  0  0  0  0  0  0  0
    3.7507    5.2016    3.9544 C   0  0  0  0  0  0  0  0  0  0  0  0
    3.6023    5.3287    2.5688 C   0  0  0  0  0  0  0  0  0  0  0  0
    3.5106    6.6977    1.9413 C   0  0  1  0  0  0  0  0  0  0  0  0
    2.9755    7.6009    2.7814 F   0  0  0  0  0  0  0  0  0  0  0  0
    4.7245    7.1637    1.5869 F   0  0  0  0  0  0  0  0  0  0  0  0
    2.7578    6.6884    0.8255 F   0  0  0  0  0  0  0  0  0  0  0  0
    3.5907    4.1922    1.7530 C   0  0  0  0  0  0  0  0  0  0  0  0
    2.8435   -1.2004    0.9214 N   0  0  0  0  0  0  0  0  0  0  0  0
    2.9831   -2.4665    0.1900 C   0  0  1  0  0  0  0  0  0  0  0  0
    2.0300   -3.0225    0.1081 H   0  0  0  0  0  0  0  0  0  0  0  0
    3.5234   -2.3355   -1.2597 C   0  0  0  0  0  0  0  0  0  0  0  0
    4.8900   -1.7000   -1.4400 C   0  0  0  0  0  0  0  0  0  0  0  0
    6.0613   -2.3953   -1.0886 C   0  0  0  0  0  0  0  0  0  0  0  0
    7.3199   -1.8160   -1.2666 C   0  0  0  0  0  0  0  0  0  0  0  0
    7.4374   -0.5334   -1.8110 C   0  0  0  0  0  0  0  0  0  0  0  0
    6.2848    0.1610   -2.1860 C   0  0  0  0  0  0  0  0  0  0  0  0
    5.0263   -0.4206   -2.0025 C   0  0  0  0  0  0  0  0  0  0  0  0
    3.9212   -3.3895    0.9957 C   0  0  0  0  0  0  0  0  0  0  0  0
    3.9698   -4.5795    0.8254 O   0  0  0  0  0  0  0  0  0  0  0  0
    4.7022   -2.7414    1.8657 O   0  0  0  0  0  0  0  0  0  0  0  0
    0.1799    0.4739   -0.5231 H   0  0  0  0  0  0  0  0  0  0  0  0
    0.0974   -0.6074    0.8877 H   0  0  0  0  0  0  0  0  0  0  0  0
    0.5683   -1.2495   -0.7053 H   0  0  0  0  0  0  0  0  0  0  0  0
    2.6605    0.1605   -0.6427 H   0  0  0  0  0  0  0  0  0  0  0  0
    1.7793    0.9380    2.1815 H   0  0  0  0  0  0  0  0  0  0  0  0
    1.6312    1.9707    0.7652 H   0  0  0  0  0  0  0  0  0  0  0  0
    4.1285    1.9082    0.4405 H   0  0  0  0  0  0  0  0  0  0  0  0
    4.2872    0.8805    1.8624 H   0  0  0  0  0  0  0  0  0  0  0  0
    4.0033    1.8065    4.1415 H   0  0  0  0  0  0  0  0  0  0  0  0
    4.0132    3.8200    5.5920 H   0  0  0  0  0  0  0  0  0  0  0  0
    3.7527    6.0902    4.5880 H   0  0  0  0  0  0  0  0  0  0  0  0
    3.4695    4.3093    0.6734 H   0  0  0  0  0  0  0  0  0  0  0  0
    2.3722   -1.4027    1.8065 H   0  0  0  0  0  0  0  0  0  0  0  0
    2.7811   -1.7958   -1.8672 H   0  0  0  0  0  0  0  0  0  0  0  0
    3.5459   -3.3664   -1.6475 H   0  0  0  0  0  0  0  0  0  0  0  0
    5.9907   -3.4089   -0.6869 H   0  0  0  0  0  0  0  0  0  0  0  0
    8.2156   -2.3759   -0.9855 H   0  0  0  0  0  0  0  0  0  0  0  0
    8.4230   -0.0829   -1.9529 H   0  0  0  0  0  0  0  0  0  0  0  0
    6.3634    1.1567   -2.6305 H   0  0  0  0  0  0  0  0  0  0  0  0
    4.1345    0.1264   -2.3222 H   0  0  0  0  0  0  0  0  0  0  0  0
    4.4736   -1.7891    1.7582 H   0  0  0  0  0  0  0  0  0  0  0  0
  1  2  1  0
  1 28  1  0
  1 29  1  0
  1 30  1  0
  2  3  1  0
  2 15  1  0
  2 31  1  6
  3  4  1  0
  3 32  1  0
  3 33  1  0
  4  5  1  0
  4 34  1  0
  4 35  1  0
  5  6  2  0
  5 14  1  0
  6  7  1  0
  6 36  1  0
  7  8  2  0
  7 37  1  0
  8  9  1  0
  8 38  1  0
  9 10  1  0
  9 14  2  0
 10 11  1  1
 10 12  1  0
 10 13  1  0
 14 39  1  0
 15 16  1  0
 15 40  1  0
 16 17  1  6
 16 18  1  0
 16 25  1  0
 18 19  1  0
 18 41  1  0
 18 42  1  0
 19 20  2  0
 19 24  1  0
 20 21  1  0
 20 43  1  0
 21 22  2  0
 21 44  1  0
 22 23  1  0
 22 45  1  0
 23 24  2  0
 23 46  1  0
 24 47  1  0
 25 26  2  0
 25 27  1  0
 27 48  1  0
M  END

