
     RDKit          3D

 39 41  0  0  0  0  0  0  0  0999 V2000
    2.1789   -2.6422   -2.5914 C   0  0  0  0  0  0  0  0  0  0  0  0
    3.0963   -1.6755   -2.5221 C   0  0  0  0  0  0  0  0  0  0  0  0
    3.3684   -0.8424   -1.2936 C   0  0  0  0  0  0  0  0  0  0  0  0
    4.7759   -0.7914   -0.9252 N   0  0  0  0  0  0  0  0  0  0  0  0
    5.6623    0.2616   -1.1083 C   0  0  0  0  0  0  0  0  0  0  0  0
    5.2654    1.5635   -1.7259 C   0  0  0  0  0  0  0  0  0  0  0  0
    6.8697   -0.0160   -0.6747 N   0  0  0  0  0  0  0  0  0  0  0  0
    6.7969   -1.3020   -0.1827 C   0  0  0  0  0  0  0  0  0  0  0  0
    7.8210   -2.0722    0.4085 C   0  0  0  0  0  0  0  0  0  0  0  0
    9.0755   -1.4565    0.5046 N   0  0  0  0  0  0  0  0  0  0  0  0
   10.2322   -1.9607    1.0297 C   0  0  0  0  0  0  0  0  0  0  0  0
   10.3623   -3.0681    1.5123 O   0  0  0  0  0  0  0  0  0  0  0  0
   11.4027   -0.9892    0.9635 C   0  0  0  0  0  0  0  0  0  0  0  0
   11.6707   -0.0986    2.0157 C   0  0  0  0  0  0  0  0  0  0  0  0
   10.5725   -0.0151    3.3749 Cl  0  0  0  0  0  0  0  0  0  0  0  0
   12.7920    0.7352    2.0065 C   0  0  0  0  0  0  0  0  0  0  0  0
   13.6714    0.6827    0.9241 C   0  0  0  0  0  0  0  0  0  0  0  0
   13.4342   -0.1872   -0.1412 C   0  0  0  0  0  0  0  0  0  0  0  0
   12.3070   -1.0124   -0.1108 C   0  0  0  0  0  0  0  0  0  0  0  0
   12.0174   -2.0889   -1.4584 Cl  0  0  0  0  0  0  0  0  0  0  0  0
    7.4947   -3.3629    0.8408 C   0  0  0  0  0  0  0  0  0  0  0  0
    6.1825   -3.8560    0.6806 C   0  0  0  0  0  0  0  0  0  0  0  0
    5.1559   -3.1116    0.0977 C   0  0  0  0  0  0  0  0  0  0  0  0
    5.4956   -1.8205   -0.3289 C   0  0  0  0  0  0  0  0  0  0  0  0
    2.0053   -3.1997   -3.5156 H   0  0  0  0  0  0  0  0  0  0  0  0
    1.5630   -2.9129   -1.7269 H   0  0  0  0  0  0  0  0  0  0  0  0
    3.7040   -1.4331   -3.4026 H   0  0  0  0  0  0  0  0  0  0  0  0
    2.7866   -1.2239   -0.4380 H   0  0  0  0  0  0  0  0  0  0  0  0
    3.0354    0.1933   -1.4653 H   0  0  0  0  0  0  0  0  0  0  0  0
    4.8798    1.4383   -2.7512 H   0  0  0  0  0  0  0  0  0  0  0  0
    6.1529    2.2073   -1.7650 H   0  0  0  0  0  0  0  0  0  0  0  0
    4.4885    2.0806   -1.1378 H   0  0  0  0  0  0  0  0  0  0  0  0
    9.0947   -0.5107    0.1307 H   0  0  0  0  0  0  0  0  0  0  0  0
   12.9644    1.4129    2.8435 H   0  0  0  0  0  0  0  0  0  0  0  0
   14.5518    1.3296    0.9096 H   0  0  0  0  0  0  0  0  0  0  0  0
   14.1117   -0.2348   -0.9946 H   0  0  0  0  0  0  0  0  0  0  0  0
    8.2652   -3.9779    1.2996 H   0  0  0  0  0  0  0  0  0  0  0  0
    5.9683   -4.8699    1.0282 H   0  0  0  0  0  0  0  0  0  0  0  0
    4.1535   -3.5238   -0.0240 H   0  0  0  0  0  0  0  0  0  0  0  0
  1  2  2  0
  1 25  1  0
  1 26  1  0
  2  3  1  0
  2 27  1  0
  3  4  1  0
  3 28  1  0
  3 29  1  0
  4  5  1  0
  4 24  1  0
  5  6  1  0
  5  7  2  0
  6 30  1  0
  6 31  1  0
  6 32  1  0
  7  8  1  0
  8  9  1  0
  8 24  2  0
  9 10  1  0
  9 21  2  0
 10 11  1  0
 10 33  1  0
 11 12  2  0
 11 13  1  0
 13 14  2  0
 13 19  1  0
 14 15  1  0
 14 16  1  0
 16 17  2  0
 16 34  1  0
 17 18  1  0
 17 35  1  0
 18 19  2  0
 18 36  1  0
 19 20  1  0
 21 22  1  0
 21 37  1  0
 22 23  2  0
 22 38  1  0
 23 24  1  0
 23 39  1  0
M  END

