
     RDKit          3D

 50 50  0  0  0  0  0  0  0  0999 V2000
    1.0532    0.3547    0.3775 C   0  0  0  0  0  0  0  0  0  0  0  0
    2.4897    0.2854    0.3388 N   0  0  0  0  0  0  0  0  0  0  0  0
    3.1571    1.0173   -0.4737 C   0  0  0  0  0  0  0  0  0  0  0  0
    4.5315    0.8517   -0.5944 N   0  0  0  0  0  0  0  0  0  0  0  0
    5.2472   -0.1038    0.2219 C   0  0  0  0  0  0  0  0  0  0  0  0
    5.7602    0.4141    1.5568 C   0  0  0  0  0  0  0  0  0  0  0  0
    5.3655    1.6339    2.1077 C   0  0  0  0  0  0  0  0  0  0  0  0
    5.8596    2.0756    3.3423 C   0  0  0  0  0  0  0  0  0  0  0  0
    6.7663    1.2849    4.0439 C   0  0  0  0  0  0  0  0  0  0  0  0
    7.1803    0.0538    3.5191 C   0  0  0  0  0  0  0  0  0  0  0  0
    6.6762   -0.3751    2.2868 C   0  0  0  0  0  0  0  0  0  0  0  0
    7.0172   -1.5639    1.6982 O   0  0  0  0  0  0  0  0  0  0  0  0
    7.9522   -2.3992    2.3147 C   0  0  0  0  0  0  0  0  0  0  0  0
    8.1661   -3.6036    1.4134 C   0  0  1  0  0  0  0  0  0  0  0  0
    8.6247   -3.2458    0.2074 F   0  0  0  0  0  0  0  0  0  0  0  0
    9.0758   -4.4173    1.9784 F   0  0  0  0  0  0  0  0  0  0  0  0
    7.0397   -4.3025    1.2366 F   0  0  0  0  0  0  0  0  0  0  0  0
    2.6271    2.0246   -1.2893 N   0  0  0  0  0  0  0  0  0  0  0  0
    3.1034    2.3077   -2.6496 C   0  0  1  0  0  0  0  0  0  0  0  0
    2.7877    1.1780   -3.6377 C   0  0  0  0  0  0  0  0  0  0  0  0
    2.5097    3.6441   -3.1206 C   0  0  0  0  0  0  0  0  0  0  0  0
    2.9149    4.8301   -2.2483 C   0  0  0  0  0  0  0  0  0  0  0  0
    2.0515    6.3226   -2.8282 S   0  0  1  0  0  0  0  0  0  0  0  0
    2.5972    7.6249   -1.7029 C   0  0  0  0  0  0  0  0  0  0  0  0
    2.5640    6.6461   -4.1678 O   0  0  0  0  0  0  0  0  0  0  0  0
    0.6119    6.1185   -2.6063 O   0  0  0  0  0  0  0  0  0  0  0  0
    0.6484   -0.5322    0.8907 H   0  0  0  0  0  0  0  0  0  0  0  0
    0.5677    0.3901   -0.6233 H   0  0  0  0  0  0  0  0  0  0  0  0
    0.6861    1.2366    0.9425 H   0  0  0  0  0  0  0  0  0  0  0  0
    5.0538    1.6701   -0.8828 H   0  0  0  0  0  0  0  0  0  0  0  0
    6.0975   -0.5067   -0.3524 H   0  0  0  0  0  0  0  0  0  0  0  0
    4.5625   -0.9450    0.4067 H   0  0  0  0  0  0  0  0  0  0  0  0
    4.6497    2.2502    1.5603 H   0  0  0  0  0  0  0  0  0  0  0  0
    5.5302    3.0334    3.7518 H   0  0  0  0  0  0  0  0  0  0  0  0
    7.1597    1.6155    5.0084 H   0  0  0  0  0  0  0  0  0  0  0  0
    7.8880   -0.5573    4.0803 H   0  0  0  0  0  0  0  0  0  0  0  0
    7.6036   -2.7679    3.2964 H   0  0  0  0  0  0  0  0  0  0  0  0
    8.9302   -1.9039    2.4541 H   0  0  0  0  0  0  0  0  0  0  0  0
    1.6143    2.0673   -1.2218 H   0  0  0  0  0  0  0  0  0  0  0  0
    4.1988    2.4257   -2.6066 H   0  0  0  0  0  0  0  0  0  0  0  0
    1.6983    1.0367   -3.7337 H   0  0  0  0  0  0  0  0  0  0  0  0
    3.2309    0.2319   -3.2928 H   0  0  0  0  0  0  0  0  0  0  0  0
    3.1903    1.4019   -4.6386 H   0  0  0  0  0  0  0  0  0  0  0  0
    1.4080    3.5726   -3.1322 H   0  0  0  0  0  0  0  0  0  0  0  0
    2.8200    3.8365   -4.1590 H   0  0  0  0  0  0  0  0  0  0  0  0
    3.9936    5.0424   -2.3114 H   0  0  0  0  0  0  0  0  0  0  0  0
    2.6298    4.6739   -1.1978 H   0  0  0  0  0  0  0  0  0  0  0  0
    3.6839    7.7547   -1.7902 H   0  0  0  0  0  0  0  0  0  0  0  0
    2.2921    7.3763   -0.6781 H   0  0  0  0  0  0  0  0  0  0  0  0
    2.0762    8.5286   -2.0482 H   0  0  0  0  0  0  0  0  0  0  0  0
  1  2  1  0
  1 27  1  0
  1 28  1  0
  1 29  1  0
  2  3  2  0
  3  4  1  0
  3 18  1  0
  4  5  1  0
  4 30  1  0
  5  6  1  0
  5 31  1  0
  5 32  1  0
  6  7  2  0
  6 11  1  0
  7  8  1  0
  7 33  1  0
  8  9  2  0
  8 34  1  0
  9 10  1  0
  9 35  1  0
 10 11  2  0
 10 36  1  0
 11 12  1  0
 12 13  1  0
 13 14  1  0
 13 37  1  0
 13 38  1  0
 14 15  1  6
 14 16  1  0
 14 17  1  0
 18 19  1  0
 18 39  1  0
 19 20  1  0
 19 21  1  0
 19 40  1  1
 20 41  1  0
 20 42  1  0
 20 43  1  0
 21 22  1  0
 21 44  1  0
 21 45  1  0
 23 22  1  1
 22 46  1  0
 22 47  1  0
 23 24  1  0
 23 25  2  0
 23 26  2  0
 24 48  1  0
 24 49  1  0
 24 50  1  0
M  END

