
     RDKit          3D

 51 54  0  0  0  0  0  0  0  0999 V2000
    3.3558    1.6413   -2.6056 C   0  0  0  0  0  0  0  0  0  0  0  0
    3.2075    1.8335   -1.0985 C   0  0  0  0  0  0  0  0  0  0  0  0
    2.1944    0.9501   -0.4878 N   0  0  0  0  0  0  0  0  0  0  0  0
    0.8863    1.4799   -0.4193 C   0  0  0  0  0  0  0  0  0  0  0  0
    0.6545    2.5604   -0.9131 O   0  0  0  0  0  0  0  0  0  0  0  0
   -0.2081    0.6919    0.3052 C   0  0  0  0  0  0  0  0  0  0  0  0
   -1.3832    1.4743    0.3925 O   0  0  0  0  0  0  0  0  0  0  0  0
   -1.3824    2.4618    1.3298 C   0  0  0  0  0  0  0  0  0  0  0  0
   -0.4630    2.6342    2.1013 O   0  0  0  0  0  0  0  0  0  0  0  0
   -2.6168    3.2391    1.2954 C   0  0  0  0  0  0  0  0  0  0  0  0
   -3.8647    2.8938    0.1156 S   0  0  0  0  0  0  0  0  0  0  0  0
   -4.8564    4.1765    0.7479 C   0  0  0  0  0  0  0  0  0  0  0  0
   -6.0921    4.4098    0.1592 N   0  0  0  0  0  0  0  0  0  0  0  0
   -7.0059    5.3780    0.5357 C   0  0  0  0  0  0  0  0  0  0  0  0
   -6.8386    6.1641    1.4509 O   0  0  0  0  0  0  0  0  0  0  0  0
   -8.2364    5.3856   -0.2813 C   0  0  0  0  0  0  0  0  0  0  0  0
   -9.3483    6.1842   -0.2124 C   0  0  0  0  0  0  0  0  0  0  0  0
  -10.2231    5.7404   -1.2520 C   0  0  0  0  0  0  0  0  0  0  0  0
   -9.5800    4.7056   -1.8751 C   0  0  0  0  0  0  0  0  0  0  0  0
   -8.3756    4.4810   -1.2966 O   0  0  0  0  0  0  0  0  0  0  0  0
   -4.2512    4.8287    1.8067 C   0  0  0  0  0  0  0  0  0  0  0  0
   -2.9689    4.2976    2.1240 C   0  0  0  0  0  0  0  0  0  0  0  0
   -2.1090    4.8375    3.2320 C   0  0  0  0  0  0  0  0  0  0  0  0
    2.5549   -0.3301   -0.0971 C   0  0  0  0  0  0  0  0  0  0  0  0
    1.7389   -1.2648    0.2671 N   0  0  0  0  0  0  0  0  0  0  0  0
    2.4012   -2.4244    0.6173 C   0  0  0  0  0  0  0  0  0  0  0  0
    1.7943   -3.6104    1.0622 C   0  0  0  0  0  0  0  0  0  0  0  0
    2.5948   -4.7084    1.3693 C   0  0  0  0  0  0  0  0  0  0  0  0
    3.9936   -4.6440    1.2394 C   0  0  0  0  0  0  0  0  0  0  0  0
    4.6179   -3.4754    0.7995 C   0  0  0  0  0  0  0  0  0  0  0  0
    3.8132   -2.3742    0.4943 C   0  0  0  0  0  0  0  0  0  0  0  0
    4.2890   -0.7851   -0.0728 S   0  0  0  0  0  0  0  0  0  0  0  0
    4.1278    2.3238   -2.9951 H   0  0  0  0  0  0  0  0  0  0  0  0
    2.4094    1.8715   -3.1166 H   0  0  0  0  0  0  0  0  0  0  0  0
    3.6554    0.6120   -2.8571 H   0  0  0  0  0  0  0  0  0  0  0  0
    2.8946    2.8611   -0.8793 H   0  0  0  0  0  0  0  0  0  0  0  0
    4.1619    1.6639   -0.5766 H   0  0  0  0  0  0  0  0  0  0  0  0
    0.1414    0.3809    1.2985 H   0  0  0  0  0  0  0  0  0  0  0  0
   -0.4638   -0.2128   -0.2585 H   0  0  0  0  0  0  0  0  0  0  0  0
   -6.3581    3.8193   -0.6222 H   0  0  0  0  0  0  0  0  0  0  0  0
   -9.5014    6.9878    0.5035 H   0  0  0  0  0  0  0  0  0  0  0  0
  -11.2038    6.1367   -1.5060 H   0  0  0  0  0  0  0  0  0  0  0  0
   -9.8401    4.0588   -2.7092 H   0  0  0  0  0  0  0  0  0  0  0  0
   -4.7219    5.6587    2.3271 H   0  0  0  0  0  0  0  0  0  0  0  0
   -2.6065    5.6801    3.7331 H   0  0  0  0  0  0  0  0  0  0  0  0
   -1.1336    5.1731    2.8483 H   0  0  0  0  0  0  0  0  0  0  0  0
   -1.8866    4.0591    3.9780 H   0  0  0  0  0  0  0  0  0  0  0  0
    0.7077   -3.6500    1.1595 H   0  0  0  0  0  0  0  0  0  0  0  0
    2.1293   -5.6340    1.7165 H   0  0  0  0  0  0  0  0  0  0  0  0
    4.6020   -5.5175    1.4857 H   0  0  0  0  0  0  0  0  0  0  0  0
    5.7043   -3.4262    0.6997 H   0  0  0  0  0  0  0  0  0  0  0  0
  1  2  1  0
  1 33  1  0
  1 34  1  0
  1 35  1  0
  2  3  1  0
  2 36  1  0
  2 37  1  0
  3  4  1  0
  3 24  1  0
  4  5  2  0
  4  6  1  0
  6  7  1  0
  6 38  1  0
  6 39  1  0
  7  8  1  0
  8  9  2  0
  8 10  1  0
 10 11  1  0
 10 22  2  0
 11 12  1  0
 12 13  1  0
 12 21  2  0
 13 14  1  0
 13 40  1  0
 14 15  2  0
 14 16  1  0
 16 17  2  0
 16 20  1  0
 17 18  1  0
 17 41  1  0
 18 19  2  0
 18 42  1  0
 19 20  1  0
 19 43  1  0
 21 22  1  0
 21 44  1  0
 22 23  1  0
 23 45  1  0
 23 46  1  0
 23 47  1  0
 24 25  2  0
 24 32  1  0
 25 26  1  0
 26 27  2  0
 26 31  1  0
 27 28  1  0
 27 48  1  0
 28 29  2  0
 28 49  1  0
 29 30  1  0
 29 50  1  0
 30 31  2  0
 30 51  1  0
 31 32  1  0
M  END

