
     RDKit          3D

 36 38  0  0  0  0  0  0  0  0999 V2000
    2.0272    1.1742    1.2562 O   0  0  0  0  0  0  0  0  0  0  0  0
    2.7924    0.5282    0.5538 C   0  0  0  0  0  0  0  0  0  0  0  0
    2.8996   -0.8273    0.6541 N   0  0  0  0  0  0  0  0  0  0  0  0
    2.1834   -1.5755    1.6848 C   0  0  1  0  0  0  0  0  0  0  0  0
    1.2429   -2.6383    1.1064 C   0  0  0  0  0  0  0  0  0  0  0  0
    0.9225   -2.6826   -0.2570 C   0  0  0  0  0  0  0  0  0  0  0  0
    0.0187   -3.6256   -0.7568 C   0  0  0  0  0  0  0  0  0  0  0  0
   -0.5734   -4.5255    0.1230 C   0  0  0  0  0  0  0  0  0  0  0  0
   -1.4410   -5.4339   -0.3481 F   0  0  0  0  0  0  0  0  0  0  0  0
   -0.2832   -4.5039    1.4862 C   0  0  0  0  0  0  0  0  0  0  0  0
    0.6245   -3.5608    1.9678 C   0  0  0  0  0  0  0  0  0  0  0  0
    3.1452   -2.1044    2.7276 C   0  0  0  0  0  0  0  0  0  0  0  0
    3.4296   -1.5533    3.9546 C   0  0  0  0  0  0  0  0  0  0  0  0
    4.4587   -2.2476    4.6622 C   0  0  0  0  0  0  0  0  0  0  0  0
    4.9501   -3.3175    3.9595 C   0  0  0  0  0  0  0  0  0  0  0  0
    4.1548   -3.5003    2.4331 S   0  0  0  0  0  0  0  0  0  0  0  0
    3.7062    1.2583   -0.4210 C   0  0  0  0  0  0  0  0  0  0  0  0
    3.9282    2.6075   -0.0771 C   0  0  0  0  0  0  0  0  0  0  0  0
    4.7396    3.4458   -0.8350 C   0  0  0  0  0  0  0  0  0  0  0  0
    5.3510    2.9536   -1.9905 C   0  0  0  0  0  0  0  0  0  0  0  0
    5.1378    1.6301   -2.3737 C   0  0  0  0  0  0  0  0  0  0  0  0
    4.3271    0.7931   -1.5972 C   0  0  0  0  0  0  0  0  0  0  0  0
    4.1081   -0.9849   -2.3018 Br  0  0  0  0  0  0  0  0  0  0  0  0
    3.6010   -1.3157    0.1083 H   0  0  0  0  0  0  0  0  0  0  0  0
    1.5669   -0.8155    2.1897 H   0  0  0  0  0  0  0  0  0  0  0  0
    1.3816   -1.9705   -0.9439 H   0  0  0  0  0  0  0  0  0  0  0  0
   -0.2322   -3.6678   -1.8185 H   0  0  0  0  0  0  0  0  0  0  0  0
   -0.7671   -5.2232    2.1498 H   0  0  0  0  0  0  0  0  0  0  0  0
    0.8571   -3.5437    3.0351 H   0  0  0  0  0  0  0  0  0  0  0  0
    2.9171   -0.6666    4.3328 H   0  0  0  0  0  0  0  0  0  0  0  0
    4.8155   -1.9648    5.6539 H   0  0  0  0  0  0  0  0  0  0  0  0
    5.7251   -4.0224    4.2579 H   0  0  0  0  0  0  0  0  0  0  0  0
    3.4228    2.9728    0.8181 H   0  0  0  0  0  0  0  0  0  0  0  0
    4.8905    4.4829   -0.5269 H   0  0  0  0  0  0  0  0  0  0  0  0
    5.9889    3.5959   -2.6026 H   0  0  0  0  0  0  0  0  0  0  0  0
    5.5955    1.2384   -3.2833 H   0  0  0  0  0  0  0  0  0  0  0  0
  1  2  2  0
  2  3  1  0
  2 17  1  0
  3  4  1  0
  3 24  1  0
  4  5  1  0
  4 12  1  0
  4 25  1  1
  5  6  2  0
  5 11  1  0
  6  7  1  0
  6 26  1  0
  7  8  2  0
  7 27  1  0
  8  9  1  0
  8 10  1  0
 10 11  2  0
 10 28  1  0
 11 29  1  0
 12 13  2  0
 12 16  1  0
 13 14  1  0
 13 30  1  0
 14 15  2  0
 14 31  1  0
 15 16  1  0
 15 32  1  0
 17 18  2  0
 17 22  1  0
 18 19  1  0
 18 33  1  0
 19 20  2  0
 19 34  1  0
 20 21  1  0
 20 35  1  0
 21 22  2  0
 21 36  1  0
 22 23  1  0
M  END

