
     RDKit          3D

 39 39  0  0  0  0  0  0  0  0999 V2000
    1.2615   -2.3659    0.7090 C   0  0  0  0  0  0  0  0  0  0  0  0
    2.6056   -1.9081    0.4966 O   0  0  0  0  0  0  0  0  0  0  0  0
    2.8251   -1.1828   -0.5955 C   0  0  0  0  0  0  0  0  0  0  0  0
    1.9491   -0.8827   -1.3812 O   0  0  0  0  0  0  0  0  0  0  0  0
    4.2929   -0.7923   -0.8200 C   0  0  1  0  0  0  0  0  0  0  0  0
    5.2106   -0.8509    0.4219 C   0  0  0  0  0  0  0  0  0  0  0  0
    6.5430   -1.3918   -0.1153 C   0  0  0  0  0  0  0  0  0  0  0  0
    6.0951   -2.3765   -1.1962 C   0  0  0  0  0  0  0  0  0  0  0  0
    4.9220   -1.7149   -1.7841 N   0  0  0  0  0  0  0  0  0  0  0  0
    4.7880   -1.6608   -3.1602 C   0  0  0  0  0  0  0  0  0  0  0  0
    5.5331   -2.2717   -3.9085 O   0  0  0  0  0  0  0  0  0  0  0  0
    3.7637   -0.8315   -3.6348 N   0  0  0  0  0  0  0  0  0  0  0  0
    3.3791   -0.9562   -5.0423 C   0  0  1  0  0  0  0  0  0  0  0  0
    2.1435   -1.8527   -5.2288 C   0  0  0  0  0  0  0  0  0  0  0  0
    1.8756   -2.2746   -6.6718 C   0  0  0  0  0  0  0  0  0  0  0  0
    0.7350   -3.2750   -6.7835 C   0  0  0  0  0  0  0  0  0  0  0  0
    0.2081   -3.8214   -5.8529 O   0  0  0  0  0  0  0  0  0  0  0  0
    0.3361   -3.5454   -8.0493 O   0  0  0  0  0  0  0  0  0  0  0  0
    3.2260    0.4390   -5.6794 C   0  0  0  0  0  0  0  0  0  0  0  0
    2.6358    0.6409   -6.7102 O   0  0  0  0  0  0  0  0  0  0  0  0
    3.8471    1.4197   -5.0141 O   0  0  0  0  0  0  0  0  0  0  0  0
    1.2842   -2.9460    1.6387 H   0  0  0  0  0  0  0  0  0  0  0  0
    0.9335   -2.9935   -0.1322 H   0  0  0  0  0  0  0  0  0  0  0  0
    0.5758   -1.5115    0.8022 H   0  0  0  0  0  0  0  0  0  0  0  0
    4.2594    0.2250   -1.2472 H   0  0  0  0  0  0  0  0  0  0  0  0
    4.7874   -1.5477    1.1580 H   0  0  0  0  0  0  0  0  0  0  0  0
    5.2962    0.1332    0.9052 H   0  0  0  0  0  0  0  0  0  0  0  0
    7.1560   -1.8620    0.6677 H   0  0  0  0  0  0  0  0  0  0  0  0
    7.1386   -0.5829   -0.5699 H   0  0  0  0  0  0  0  0  0  0  0  0
    5.8126   -3.3510   -0.7579 H   0  0  0  0  0  0  0  0  0  0  0  0
    6.8349   -2.5629   -1.9843 H   0  0  0  0  0  0  0  0  0  0  0  0
    2.9765   -0.6850   -2.9947 H   0  0  0  0  0  0  0  0  0  0  0  0
    4.2427   -1.4253   -5.5442 H   0  0  0  0  0  0  0  0  0  0  0  0
    1.2506   -1.3512   -4.8201 H   0  0  0  0  0  0  0  0  0  0  0  0
    2.2900   -2.7594   -4.6228 H   0  0  0  0  0  0  0  0  0  0  0  0
    2.7754   -2.7497   -7.1067 H   0  0  0  0  0  0  0  0  0  0  0  0
    1.6664   -1.3915   -7.2957 H   0  0  0  0  0  0  0  0  0  0  0  0
    0.8334   -3.0049   -8.6800 H   0  0  0  0  0  0  0  0  0  0  0  0
    4.2045    1.0100   -4.2004 H   0  0  0  0  0  0  0  0  0  0  0  0
  1  2  1  0
  1 22  1  0
  1 23  1  0
  1 24  1  0
  2  3  1  0
  3  4  2  0
  3  5  1  0
  5  6  1  0
  5  9  1  0
  5 25  1  6
  6  7  1  0
  6 26  1  0
  6 27  1  0
  7  8  1  0
  7 28  1  0
  7 29  1  0
  8  9  1  0
  8 30  1  0
  8 31  1  0
  9 10  1  0
 10 11  2  0
 10 12  1  0
 12 13  1  0
 12 32  1  0
 13 14  1  0
 13 19  1  0
 13 33  1  6
 14 15  1  0
 14 34  1  0
 14 35  1  0
 15 16  1  0
 15 36  1  0
 15 37  1  0
 16 17  2  0
 16 18  1  0
 18 38  1  0
 19 20  2  0
 19 21  1  0
 21 39  1  0
M  END

