
     RDKit          3D

 59 66  0  0  0  0  0  0  0  0999 V2000
    1.0642   -0.3054    3.2852 C   0  0  0  0  0  0  0  0  0  0  0  0
   -0.2488   -0.4496    2.8314 C   0  0  0  0  0  0  0  0  0  0  0  0
   -0.5121   -0.4178    1.4613 C   0  0  0  0  0  0  0  0  0  0  0  0
    0.5196   -0.2567    0.5200 C   0  0  0  0  0  0  0  0  0  0  0  0
    1.8492   -0.1113    0.9792 C   0  0  0  0  0  0  0  0  0  0  0  0
    2.0973   -0.1319    2.3630 C   0  0  0  0  0  0  0  0  0  0  0  0
    2.9916    0.1294    0.0464 C   0  0  0  0  0  0  0  0  0  0  0  0
    3.7053    1.3368    0.1432 C   0  0  0  0  0  0  0  0  0  0  0  0
    4.8124    1.5951   -0.6664 C   0  0  0  0  0  0  0  0  0  0  0  0
    5.2348    0.6332   -1.5865 C   0  0  0  0  0  0  0  0  0  0  0  0
    4.5444   -0.5757   -1.6854 C   0  0  0  0  0  0  0  0  0  0  0  0
    3.4199   -0.8439   -0.8857 C   0  0  0  0  0  0  0  0  0  0  0  0
    2.7559   -2.1772   -0.9990 C   0  0  0  0  0  0  0  0  0  0  0  0
    3.4940   -3.3339   -0.6957 C   0  0  0  0  0  0  0  0  0  0  0  0
    2.9492   -4.6095   -0.8344 C   0  0  0  0  0  0  0  0  0  0  0  0
    1.6309   -4.7516   -1.2838 C   0  0  0  0  0  0  0  0  0  0  0  0
    1.0521   -6.0450   -1.4179 N   0  0  0  0  0  0  0  0  0  0  0  0
    0.5473   -6.6034   -2.6007 C   0  0  0  0  0  0  0  0  0  0  0  0
    0.5162   -6.0667   -3.8930 C   0  0  0  0  0  0  0  0  0  0  0  0
   -0.0334   -6.8501   -4.9092 C   0  0  0  0  0  0  0  0  0  0  0  0
   -0.5373   -8.1385   -4.6514 C   0  0  0  0  0  0  0  0  0  0  0  0
   -0.4944   -8.6737   -3.3645 C   0  0  0  0  0  0  0  0  0  0  0  0
    0.0530   -7.9075   -2.3254 C   0  0  0  0  0  0  0  0  0  0  0  0
    0.2718   -8.1386   -0.9106 C   0  0  0  0  0  0  0  0  0  0  0  0
    0.0098   -9.1917   -0.0238 C   0  0  0  0  0  0  0  0  0  0  0  0
    0.3132   -9.1312    1.2712 N   0  0  0  0  0  0  0  0  0  0  0  0
    0.8878   -8.0106    1.7405 C   0  0  0  0  0  0  0  0  0  0  0  0
    1.2027   -6.8911    0.9682 C   0  0  0  0  0  0  0  0  0  0  0  0
    0.8891   -6.9689   -0.3934 C   0  0  0  0  0  0  0  0  0  0  0  0
    0.8846   -3.6091   -1.5954 C   0  0  0  0  0  0  0  0  0  0  0  0
    1.4274   -2.3213   -1.4617 C   0  0  0  0  0  0  0  0  0  0  0  0
    0.5929   -1.1482   -1.8642 C   0  0  0  0  0  0  0  0  0  0  0  0
    0.1682   -1.0445   -3.2000 C   0  0  0  0  0  0  0  0  0  0  0  0
   -0.6526    0.0020   -3.6226 C   0  0  0  0  0  0  0  0  0  0  0  0
   -1.0747    0.9622   -2.7006 C   0  0  0  0  0  0  0  0  0  0  0  0
   -0.6706    0.8646   -1.3683 C   0  0  0  0  0  0  0  0  0  0  0  0
    0.1666   -0.1762   -0.9300 C   0  0  0  0  0  0  0  0  0  0  0  0
    1.2857   -0.3273    4.3552 H   0  0  0  0  0  0  0  0  0  0  0  0
   -1.0683   -0.5864    3.5415 H   0  0  0  0  0  0  0  0  0  0  0  0
   -1.5389   -0.5253    1.1028 H   0  0  0  0  0  0  0  0  0  0  0  0
    3.1254   -0.0144    2.7146 H   0  0  0  0  0  0  0  0  0  0  0  0
    3.3748    2.0857    0.8672 H   0  0  0  0  0  0  0  0  0  0  0  0
    5.3433    2.5462   -0.5769 H   0  0  0  0  0  0  0  0  0  0  0  0
    6.1003    0.8211   -2.2267 H   0  0  0  0  0  0  0  0  0  0  0  0
    4.8745   -1.3326   -2.4014 H   0  0  0  0  0  0  0  0  0  0  0  0
    4.5237   -3.2258   -0.3469 H   0  0  0  0  0  0  0  0  0  0  0  0
    3.5437   -5.4954   -0.6027 H   0  0  0  0  0  0  0  0  0  0  0  0
    0.9115   -5.0716   -4.1026 H   0  0  0  0  0  0  0  0  0  0  0  0
   -0.0698   -6.4526   -5.9267 H   0  0  0  0  0  0  0  0  0  0  0  0
   -0.9620   -8.7247   -5.4697 H   0  0  0  0  0  0  0  0  0  0  0  0
   -0.8789   -9.6776   -3.1682 H   0  0  0  0  0  0  0  0  0  0  0  0
   -0.4636  -10.1152   -0.3795 H   0  0  0  0  0  0  0  0  0  0  0  0
    1.1144   -7.9995    2.8131 H   0  0  0  0  0  0  0  0  0  0  0  0
    1.6642   -6.0091    1.4146 H   0  0  0  0  0  0  0  0  0  0  0  0
   -0.1463   -3.7221   -1.9364 H   0  0  0  0  0  0  0  0  0  0  0  0
    0.4967   -1.8001   -3.9181 H   0  0  0  0  0  0  0  0  0  0  0  0
   -0.9616    0.0651   -4.6689 H   0  0  0  0  0  0  0  0  0  0  0  0
   -1.7189    1.7867   -3.0162 H   0  0  0  0  0  0  0  0  0  0  0  0
   -1.0026    1.6120   -0.6435 H   0  0  0  0  0  0  0  0  0  0  0  0
  1  2  1  0
  1  6  2  0
  1 38  1  0
  2  3  2  0
  2 39  1  0
  3  4  1  0
  3 40  1  0
  4  5  1  0
  4 37  2  0
  5  6  1  0
  5  7  2  0
  6 41  1  0
  7  8  1  0
  7 12  1  0
  8  9  2  0
  8 42  1  0
  9 10  1  0
  9 43  1  0
 10 11  2  0
 10 44  1  0
 11 12  1  0
 11 45  1  0
 12 13  2  0
 13 14  1  0
 13 31  1  0
 14 15  2  0
 14 46  1  0
 15 16  1  0
 15 47  1  0
 16 17  1  0
 16 30  2  0
 17 18  1  0
 17 29  1  0
 18 19  2  0
 18 23  1  0
 19 20  1  0
 19 48  1  0
 20 21  2  0
 20 49  1  0
 21 22  1  0
 21 50  1  0
 22 23  2  0
 22 51  1  0
 23 24  1  0
 24 25  1  0
 24 29  2  0
 25 26  2  0
 25 52  1  0
 26 27  1  0
 27 28  2  0
 27 53  1  0
 28 29  1  0
 28 54  1  0
 30 31  1  0
 30 55  1  0
 31 32  2  0
 32 33  1  0
 32 37  1  0
 33 34  2  0
 33 56  1  0
 34 35  1  0
 34 57  1  0
 35 36  2  0
 35 58  1  0
 36 37  1  0
 36 59  1  0
M  END

