
     RDKit          3D

 29 29  0  0  0  0  0  0  0  0999 V2000
    0.8596    0.0830   -0.3154 C   0  0  0  0  0  0  0  0  0  0  0  0
    2.3591   -0.0346   -0.0381 C   0  0  0  0  0  0  0  0  0  0  0  0
    2.9530    1.2050    0.6729 C   0  0  1  0  0  0  0  0  0  0  0  0
    2.3861    1.3182    2.0808 C   0  0  0  0  0  0  0  0  0  0  0  0
    2.3516    0.4338    2.8983 O   0  0  0  0  0  0  0  0  0  0  0  0
    1.9269    2.5694    2.3378 O   0  0  0  0  0  0  0  0  0  0  0  0
    1.3105    2.7508    3.5935 C   0  0  0  0  0  0  0  0  0  0  0  0
   -0.1082    2.1703    3.6114 C   0  0  0  0  0  0  0  0  0  0  0  0
   -0.6518    1.6933    2.6590 O   0  0  0  0  0  0  0  0  0  0  0  0
   -0.7288    2.2618    4.8054 O   0  0  0  0  0  0  0  0  0  0  0  0
    4.4764    1.1793    0.7105 C   0  0  0  0  0  0  0  0  0  0  0  0
    5.2278    2.0474   -0.0919 C   0  0  0  0  0  0  0  0  0  0  0  0
    6.6211    1.9708   -0.0688 C   0  0  0  0  0  0  0  0  0  0  0  0
    7.2201    1.0220    0.7646 C   0  0  0  0  0  0  0  0  0  0  0  0
    6.5220    0.1891    1.5398 N   0  0  0  0  0  0  0  0  0  0  0  0
    5.1900    0.2681    1.5104 C   0  0  0  0  0  0  0  0  0  0  0  0
    0.4794   -0.8340   -0.7921 H   0  0  0  0  0  0  0  0  0  0  0  0
    0.6449    0.9246   -0.9951 H   0  0  0  0  0  0  0  0  0  0  0  0
    0.2805    0.2490    0.6064 H   0  0  0  0  0  0  0  0  0  0  0  0
    2.9106   -0.1762   -0.9822 H   0  0  0  0  0  0  0  0  0  0  0  0
    2.5656   -0.9211    0.5835 H   0  0  0  0  0  0  0  0  0  0  0  0
    2.6442    2.1099    0.1287 H   0  0  0  0  0  0  0  0  0  0  0  0
    1.2592    3.8379    3.7632 H   0  0  0  0  0  0  0  0  0  0  0  0
    1.9051    2.2839    4.3970 H   0  0  0  0  0  0  0  0  0  0  0  0
   -0.1416    2.6291    5.4828 H   0  0  0  0  0  0  0  0  0  0  0  0
    4.7233    2.7784   -0.7309 H   0  0  0  0  0  0  0  0  0  0  0  0
    7.2330    2.6347   -0.6840 H   0  0  0  0  0  0  0  0  0  0  0  0
    8.3124    0.9337    0.8072 H   0  0  0  0  0  0  0  0  0  0  0  0
    4.6444   -0.4200    2.1652 H   0  0  0  0  0  0  0  0  0  0  0  0
  1  2  1  0
  1 17  1  0
  1 18  1  0
  1 19  1  0
  2  3  1  0
  2 20  1  0
  2 21  1  0
  3  4  1  0
  3 11  1  0
  3 22  1  6
  4  5  2  0
  4  6  1  0
  6  7  1  0
  7  8  1  0
  7 23  1  0
  7 24  1  0
  8  9  2  0
  8 10  1  0
 10 25  1  0
 11 12  2  0
 11 16  1  0
 12 13  1  0
 12 26  1  0
 13 14  2  0
 13 27  1  0
 14 15  1  0
 14 28  1  0
 15 16  2  0
 16 29  1  0
M  END

