
     RDKit          3D

 39 40  0  0  0  0  0  0  0  0999 V2000
    2.3760    2.9635    1.8504 O   0  0  0  0  0  0  0  0  0  0  0  0
    1.9914    2.1549    1.0216 C   0  0  0  0  0  0  0  0  0  0  0  0
    0.4904    1.8764    0.8977 C   0  0  0  0  0  0  0  0  0  0  0  0
    0.2433    0.9164   -0.1101 O   0  0  0  0  0  0  0  0  0  0  0  0
   -1.0164    0.5157   -0.3978 C   0  0  0  0  0  0  0  0  0  0  0  0
   -2.1666    0.9908    0.2481 C   0  0  0  0  0  0  0  0  0  0  0  0
   -3.4305    0.5159   -0.1193 C   0  0  0  0  0  0  0  0  0  0  0  0
   -3.5650   -0.4348   -1.1309 C   0  0  0  0  0  0  0  0  0  0  0  0
   -2.4241   -0.9161   -1.7824 C   0  0  0  0  0  0  0  0  0  0  0  0
   -1.1634   -0.4467   -1.4207 C   0  0  0  0  0  0  0  0  0  0  0  0
    0.2607   -1.0496   -2.2362 Cl  0  0  0  0  0  0  0  0  0  0  0  0
    2.7822    1.4544    0.1741 N   0  0  0  0  0  0  0  0  0  0  0  0
    4.2357    1.5831    0.1379 C   0  0  1  0  0  0  0  0  0  0  0  0
    4.8677    0.2079    0.4141 C   0  0  0  0  0  0  0  0  0  0  0  0
    6.4006    0.1201    0.3685 C   0  0  0  0  0  0  0  0  0  0  0  0
    7.0022    0.2627   -1.0394 C   0  0  0  0  0  0  0  0  0  0  0  0
    7.2167    1.7016   -1.5468 C   0  0  0  0  0  0  0  0  0  0  0  0
    6.1515    2.7399   -1.1500 C   0  0  0  0  0  0  0  0  0  0  0  0
    4.6868    2.2725   -1.1665 C   0  0  0  0  0  0  0  0  0  0  0  0
   -0.0100    2.8355    0.6745 H   0  0  0  0  0  0  0  0  0  0  0  0
    0.1320    1.5301    1.8835 H   0  0  0  0  0  0  0  0  0  0  0  0
   -2.0792    1.7339    1.0411 H   0  0  0  0  0  0  0  0  0  0  0  0
   -4.3140    0.8991    0.3966 H   0  0  0  0  0  0  0  0  0  0  0  0
   -4.5511   -0.8057   -1.4180 H   0  0  0  0  0  0  0  0  0  0  0  0
   -2.5014   -1.6600   -2.5772 H   0  0  0  0  0  0  0  0  0  0  0  0
    2.3236    0.8139   -0.4676 H   0  0  0  0  0  0  0  0  0  0  0  0
    4.4811    2.2612    0.9705 H   0  0  0  0  0  0  0  0  0  0  0  0
    4.4576   -0.5194   -0.3128 H   0  0  0  0  0  0  0  0  0  0  0  0
    4.5124   -0.1216    1.4048 H   0  0  0  0  0  0  0  0  0  0  0  0
    6.6819   -0.8677    0.7702 H   0  0  0  0  0  0  0  0  0  0  0  0
    6.8479    0.8585    1.0586 H   0  0  0  0  0  0  0  0  0  0  0  0
    6.3512   -0.2859   -1.7435 H   0  0  0  0  0  0  0  0  0  0  0  0
    7.9729   -0.2599   -1.0772 H   0  0  0  0  0  0  0  0  0  0  0  0
    7.3004    1.6668   -2.6472 H   0  0  0  0  0  0  0  0  0  0  0  0
    8.1943    2.0706   -1.1904 H   0  0  0  0  0  0  0  0  0  0  0  0
    6.2582    3.6079   -1.8215 H   0  0  0  0  0  0  0  0  0  0  0  0
    6.3714    3.1295   -0.1404 H   0  0  0  0  0  0  0  0  0  0  0  0
    4.4927    1.6135   -2.0335 H   0  0  0  0  0  0  0  0  0  0  0  0
    4.0356    3.1512   -1.3002 H   0  0  0  0  0  0  0  0  0  0  0  0
  1  2  2  0
  2  3  1  0
  2 12  1  0
  3  4  1  0
  3 20  1  0
  3 21  1  0
  4  5  1  0
  5  6  2  0
  5 10  1  0
  6  7  1  0
  6 22  1  0
  7  8  2  0
  7 23  1  0
  8  9  1  0
  8 24  1  0
  9 10  2  0
  9 25  1  0
 10 11  1  0
 12 13  1  0
 12 26  1  0
 13 14  1  0
 13 19  1  0
 13 27  1  1
 14 15  1  0
 14 28  1  0
 14 29  1  0
 15 16  1  0
 15 30  1  0
 15 31  1  0
 16 17  1  0
 16 32  1  0
 16 33  1  0
 17 18  1  0
 17 34  1  0
 17 35  1  0
 18 19  1  0
 18 36  1  0
 18 37  1  0
 19 38  1  0
 19 39  1  0
M  END

