
     RDKit          3D

 41 43  0  0  0  0  0  0  0  0999 V2000
    2.2215    1.4148    4.7396 C   0  0  0  0  0  0  0  0  0  0  0  0
    2.0484    2.5976    3.8015 C   0  0  0  0  0  0  0  0  0  0  0  0
    3.1473    2.7033    2.8765 O   0  0  0  0  0  0  0  0  0  0  0  0
    4.2371    3.3798    3.2826 C   0  0  0  0  0  0  0  0  0  0  0  0
    4.3447    3.9083    4.3603 O   0  0  0  0  0  0  0  0  0  0  0  0
    5.2871    3.4241    2.1776 C   0  0  0  0  0  0  0  0  0  0  0  0
    6.6895    3.3924    2.7101 C   0  0  0  0  0  0  0  0  0  0  0  0
    7.5773    4.4341    2.6981 C   0  0  0  0  0  0  0  0  0  0  0  0
    9.0784    3.9527    3.4287 S   0  0  0  0  0  0  0  0  0  0  0  0
    8.3623    2.3552    3.7076 C   0  0  0  0  0  0  0  0  0  0  0  0
    9.1356    1.3897    4.3360 N   0  0  0  0  0  0  0  0  0  0  0  0
    8.8644    0.0303    4.4522 C   0  0  0  0  0  0  0  0  0  0  0  0
    7.8893   -0.5078    3.9795 O   0  0  0  0  0  0  0  0  0  0  0  0
    9.9144   -0.7502    5.2371 C   0  0  1  0  0  0  0  0  0  0  0  0
   11.1082   -0.0170    5.7870 C   0  0  0  0  0  0  0  0  0  0  0  0
   11.0642    0.5873    7.0560 C   0  0  0  0  0  0  0  0  0  0  0  0
   12.1548    1.2990    7.5600 C   0  0  0  0  0  0  0  0  0  0  0  0
   13.3140    1.4146    6.7866 C   0  0  0  0  0  0  0  0  0  0  0  0
   14.6856    2.2992    7.4094 Cl  0  0  0  0  0  0  0  0  0  0  0  0
   13.3856    0.8272    5.5198 C   0  0  0  0  0  0  0  0  0  0  0  0
   12.2856    0.1192    5.0307 C   0  0  0  0  0  0  0  0  0  0  0  0
    9.3319   -1.9172    6.0259 C   0  0  0  0  0  0  0  0  0  0  0  0
   10.0785   -2.1886    4.7628 C   0  0  0  0  0  0  0  0  0  0  0  0
    7.1477    2.2276    3.2835 N   0  0  0  0  0  0  0  0  0  0  0  0
    1.3321    1.3130    5.3823 H   0  0  0  0  0  0  0  0  0  0  0  0
    3.0992    1.5563    5.3872 H   0  0  0  0  0  0  0  0  0  0  0  0
    2.3485    0.4791    4.1735 H   0  0  0  0  0  0  0  0  0  0  0  0
    1.9642    3.5387    4.3652 H   0  0  0  0  0  0  0  0  0  0  0  0
    1.1590    2.4774    3.1657 H   0  0  0  0  0  0  0  0  0  0  0  0
    5.1162    4.3523    1.6083 H   0  0  0  0  0  0  0  0  0  0  0  0
    5.1158    2.5796    1.4946 H   0  0  0  0  0  0  0  0  0  0  0  0
    7.4338    5.4455    2.3236 H   0  0  0  0  0  0  0  0  0  0  0  0
   10.0074    1.7087    4.7446 H   0  0  0  0  0  0  0  0  0  0  0  0
   10.1597    0.4950    7.6630 H   0  0  0  0  0  0  0  0  0  0  0  0
   12.1130    1.7609    8.5478 H   0  0  0  0  0  0  0  0  0  0  0  0
   14.2973    0.9234    4.9278 H   0  0  0  0  0  0  0  0  0  0  0  0
   12.3444   -0.3428    4.0417 H   0  0  0  0  0  0  0  0  0  0  0  0
    8.2444   -2.0179    6.0019 H   0  0  0  0  0  0  0  0  0  0  0  0
    9.8132   -2.1566    6.9779 H   0  0  0  0  0  0  0  0  0  0  0  0
    9.4963   -2.4735    3.8836 H   0  0  0  0  0  0  0  0  0  0  0  0
   11.0810   -2.6191    4.8325 H   0  0  0  0  0  0  0  0  0  0  0  0
  1  2  1  0
  1 25  1  0
  1 26  1  0
  1 27  1  0
  2  3  1  0
  2 28  1  0
  2 29  1  0
  3  4  1  0
  4  5  2  0
  4  6  1  0
  6  7  1  0
  6 30  1  0
  6 31  1  0
  7  8  2  0
  7 24  1  0
  8  9  1  0
  8 32  1  0
  9 10  1  0
 10 11  1  0
 10 24  2  0
 11 12  1  0
 11 33  1  0
 12 13  2  0
 14 12  1  6
 14 15  1  0
 14 22  1  0
 14 23  1  0
 15 16  2  0
 15 21  1  0
 16 17  1  0
 16 34  1  0
 17 18  2  0
 17 35  1  0
 18 19  1  0
 18 20  1  0
 20 21  2  0
 20 36  1  0
 21 37  1  0
 22 23  1  0
 22 38  1  0
 22 39  1  0
 23 40  1  0
 23 41  1  0
M  END

