
     RDKit          3D

 58 62  0  0  0  0  0  0  0  0999 V2000
    5.1390   -5.0019    1.1557 C   0  0  0  0  0  0  0  0  0  0  0  0
    5.5881   -3.7758    0.4245 C   0  0  0  0  0  0  0  0  0  0  0  0
    6.6867   -2.9802    0.6708 C   0  0  0  0  0  0  0  0  0  0  0  0
    6.6468   -1.9617   -0.2716 N   0  0  0  0  0  0  0  0  0  0  0  0
    7.6155   -0.9302   -0.4452 C   0  0  0  0  0  0  0  0  0  0  0  0
    8.9531   -1.2903   -0.6527 C   0  0  0  0  0  0  0  0  0  0  0  0
    9.9323   -0.3148   -0.8145 C   0  0  0  0  0  0  0  0  0  0  0  0
    9.6000    1.0532   -0.7830 C   0  0  0  0  0  0  0  0  0  0  0  0
   10.6601    2.0487   -0.9665 C   0  0  0  0  0  0  0  0  0  0  0  0
   10.5230    3.3910   -0.9891 C   0  0  0  0  0  0  0  0  0  0  0  0
   11.6212    4.3304   -1.1759 C   0  0  0  0  0  0  0  0  0  0  0  0
   11.4243    5.6842   -1.1896 N   0  0  0  0  0  0  0  0  0  0  0  0
   12.6360    6.1735   -1.3798 C   0  0  0  0  0  0  0  0  0  0  0  0
   13.5262    5.1495   -1.4694 N   0  0  0  0  0  0  0  0  0  0  0  0
   12.8958    3.9703   -1.3466 N   0  0  0  0  0  0  0  0  0  0  0  0
   14.9543    5.2527   -1.7185 C   0  0  0  0  0  0  0  0  0  0  0  0
   15.4170    6.6746   -1.4083 C   0  0  0  0  0  0  0  0  0  0  0  0
   14.4984    7.7404   -2.0324 C   0  0  2  0  0  0  0  0  0  0  0  0
   14.4310    7.5329   -3.1169 H   0  0  0  0  0  0  0  0  0  0  0  0
   15.0737    9.1462   -1.8504 C   0  0  0  0  0  0  0  0  0  0  0  0
   13.0585    7.6206   -1.4471 C   0  0  1  0  0  0  0  0  0  0  0  0
   12.0377    8.4842   -2.1745 C   0  0  0  0  0  0  0  0  0  0  0  0
   11.6216    8.1719   -3.4792 C   0  0  0  0  0  0  0  0  0  0  0  0
   10.7127    8.9800   -4.1624 C   0  0  0  0  0  0  0  0  0  0  0  0
   10.2115   10.1159   -3.5284 C   0  0  0  0  0  0  0  0  0  0  0  0
    9.3360   10.8964   -4.1792 F   0  0  0  0  0  0  0  0  0  0  0  0
   10.5965   10.4540   -2.2349 C   0  0  0  0  0  0  0  0  0  0  0  0
   11.5091    9.6316   -1.5676 C   0  0  0  0  0  0  0  0  0  0  0  0
    8.2492    1.3907   -0.5662 C   0  0  0  0  0  0  0  0  0  0  0  0
    7.2450    0.4335   -0.3893 C   0  0  0  0  0  0  0  0  0  0  0  0
    5.8229    0.8664   -0.1246 C   0  0  0  0  0  0  0  0  0  0  0  0
    5.5354   -2.2063   -1.0413 C   0  0  0  0  0  0  0  0  0  0  0  0
    4.8869   -3.2763   -0.6519 N   0  0  0  0  0  0  0  0  0  0  0  0
    5.8292   -5.2576    1.9732 H   0  0  0  0  0  0  0  0  0  0  0  0
    5.0762   -5.8650    0.4725 H   0  0  0  0  0  0  0  0  0  0  0  0
    4.1332   -4.8595    1.5844 H   0  0  0  0  0  0  0  0  0  0  0  0
    7.4655   -3.0232    1.4281 H   0  0  0  0  0  0  0  0  0  0  0  0
    9.2145   -2.3497   -0.6965 H   0  0  0  0  0  0  0  0  0  0  0  0
   10.9712   -0.6124   -0.9779 H   0  0  0  0  0  0  0  0  0  0  0  0
   11.6693    1.6455   -1.1007 H   0  0  0  0  0  0  0  0  0  0  0  0
    9.5501    3.8732   -0.8668 H   0  0  0  0  0  0  0  0  0  0  0  0
   15.1534    4.9918   -2.7727 H   0  0  0  0  0  0  0  0  0  0  0  0
   15.4647    4.5060   -1.0926 H   0  0  0  0  0  0  0  0  0  0  0  0
   16.4468    6.8001   -1.7793 H   0  0  0  0  0  0  0  0  0  0  0  0
   15.4557    6.8235   -0.3143 H   0  0  0  0  0  0  0  0  0  0  0  0
   15.1851    9.3921   -0.7805 H   0  0  0  0  0  0  0  0  0  0  0  0
   14.4258    9.9103   -2.3044 H   0  0  0  0  0  0  0  0  0  0  0  0
   16.0684    9.2264   -2.3164 H   0  0  0  0  0  0  0  0  0  0  0  0
   13.1045    7.9832   -0.4032 H   0  0  0  0  0  0  0  0  0  0  0  0
   12.0001    7.2721   -3.9710 H   0  0  0  0  0  0  0  0  0  0  0  0
   10.3805    8.7404   -5.1743 H   0  0  0  0  0  0  0  0  0  0  0  0
   10.1790   11.3466   -1.7652 H   0  0  0  0  0  0  0  0  0  0  0  0
   11.8091    9.8896   -0.5483 H   0  0  0  0  0  0  0  0  0  0  0  0
    7.9645    2.4440   -0.5143 H   0  0  0  0  0  0  0  0  0  0  0  0
    5.7957    1.9036    0.2397 H   0  0  0  0  0  0  0  0  0  0  0  0
    5.3352    0.2226    0.6226 H   0  0  0  0  0  0  0  0  0  0  0  0
    5.2031    0.8239   -1.0357 H   0  0  0  0  0  0  0  0  0  0  0  0
    5.2774   -1.5714   -1.8887 H   0  0  0  0  0  0  0  0  0  0  0  0
  1  2  1  0
  1 34  1  0
  1 35  1  0
  1 36  1  0
  2  3  2  0
  2 33  1  0
  3  4  1  0
  3 37  1  0
  4  5  1  0
  4 32  1  0
  5  6  2  0
  5 30  1  0
  6  7  1  0
  6 38  1  0
  7  8  2  0
  7 39  1  0
  8  9  1  0
  8 29  1  0
  9 10  2  0
  9 40  1  0
 10 11  1  0
 10 41  1  0
 11 12  1  0
 11 15  2  0
 12 13  2  0
 13 14  1  0
 13 21  1  0
 14 15  1  0
 14 16  1  0
 16 17  1  0
 16 42  1  0
 16 43  1  0
 17 18  1  0
 17 44  1  0
 17 45  1  0
 18 19  1  6
 18 20  1  0
 18 21  1  0
 20 46  1  0
 20 47  1  0
 20 48  1  0
 21 22  1  0
 21 49  1  1
 22 23  2  0
 22 28  1  0
 23 24  1  0
 23 50  1  0
 24 25  2  0
 24 51  1  0
 25 26  1  0
 25 27  1  0
 27 28  2  0
 27 52  1  0
 28 53  1  0
 29 30  2  0
 29 54  1  0
 30 31  1  0
 31 55  1  0
 31 56  1  0
 31 57  1  0
 32 33  2  0
 32 58  1  0
M  END

