
     RDKit          3D

 76 78  0  0  0  0  0  0  0  0999 V2000
    0.0150   -0.6780    1.1260 C   0  0  0  0  0  0  0  0  0  0  0  0
    1.5434   -0.6676    1.0730 C   0  0  0  0  0  0  0  0  0  0  0  0
    2.1207   -1.4016   -0.1414 C   0  0  0  0  0  0  0  0  0  0  0  0
    3.6514   -1.3944   -0.2027 C   0  0  0  0  0  0  0  0  0  0  0  0
    4.2187   -2.1287   -1.4226 C   0  0  0  0  0  0  0  0  0  0  0  0
    5.7549   -2.0733   -1.5630 C   0  0  1  0  0  0  0  0  0  0  0  0
    6.5121   -2.8402   -0.4561 C   0  0  0  0  0  0  0  0  0  0  0  0
    6.4498   -4.3676   -0.6223 C   0  0  0  0  0  0  0  0  0  0  0  0
    6.9497   -4.8562   -2.0040 C   0  0  2  0  0  0  0  0  0  0  0  0
    8.5000   -4.7541   -2.1480 C   0  0  1  0  0  0  0  0  0  0  0  0
    9.2502   -5.7302   -1.2088 C   0  0  0  0  0  0  0  0  0  0  0  0
    9.1494   -7.2003   -1.6467 C   0  0  0  0  0  0  0  0  0  0  0  0
    9.6023   -7.4373   -3.1020 C   0  0  2  0  0  0  0  0  0  0  0  0
   11.1246   -7.4075   -3.2653 C   0  0  0  0  0  0  0  0  0  0  0  0
   11.6966   -8.4530   -2.5019 O   0  0  0  0  0  0  0  0  0  0  0  0
   13.0993   -8.6167   -2.6337 C   0  0  1  0  0  0  0  0  0  0  0  0
   13.9036   -7.6612   -1.7405 C   0  0  0  0  0  0  0  0  0  0  0  0
   13.6230   -7.9071   -0.2527 C   0  0  0  0  0  0  0  0  0  0  0  0
   13.9362   -9.3632    0.1394 C   0  0  2  0  0  0  0  0  0  0  0  0
   15.3171   -9.6428    0.0400 O   0  0  0  0  0  0  0  0  0  0  0  0
   16.0576   -9.4858    1.2306 C   0  0  0  0  0  0  0  0  0  0  0  0
   17.5084   -9.8299    0.9493 C   0  0  0  0  0  0  0  0  0  0  0  0
   13.1642  -10.3162   -0.7769 C   0  0  2  0  0  0  0  0  0  0  0  0
   13.4484  -11.6281   -0.4548 F   0  0  0  0  0  0  0  0  0  0  0  0
   13.4009  -10.0775   -2.2634 C   0  0  2  0  0  0  0  0  0  0  0  0
   14.7112  -10.3477   -2.6111 F   0  0  0  0  0  0  0  0  0  0  0  0
    8.9099   -6.4366   -4.0506 C   0  0  0  0  0  0  0  0  0  0  0  0
    9.0317   -4.9781   -3.5817 C   0  0  0  0  0  0  0  0  0  0  0  0
    6.1490   -4.1007   -3.0889 C   0  0  0  0  0  0  0  0  0  0  0  0
    6.2311   -2.5737   -2.9445 C   0  0  0  0  0  0  0  0  0  0  0  0
   -0.3642   -0.1419    2.0107 H   0  0  0  0  0  0  0  0  0  0  0  0
   -0.3780   -1.7079    1.1677 H   0  0  0  0  0  0  0  0  0  0  0  0
   -0.4205   -0.1970    0.2339 H   0  0  0  0  0  0  0  0  0  0  0  0
    1.9476   -1.1210    1.9966 H   0  0  0  0  0  0  0  0  0  0  0  0
    1.9054    0.3769    1.0708 H   0  0  0  0  0  0  0  0  0  0  0  0
    1.7154   -0.9495   -1.0662 H   0  0  0  0  0  0  0  0  0  0  0  0
    1.7600   -2.4474   -0.1393 H   0  0  0  0  0  0  0  0  0  0  0  0
    4.0468   -1.8408    0.7271 H   0  0  0  0  0  0  0  0  0  0  0  0
    4.0104   -0.3481   -0.2085 H   0  0  0  0  0  0  0  0  0  0  0  0
    3.7757   -1.6858   -2.3333 H   0  0  0  0  0  0  0  0  0  0  0  0
    3.8680   -3.1758   -1.4054 H   0  0  0  0  0  0  0  0  0  0  0  0
    6.0358   -1.0070   -1.4819 H   0  0  0  0  0  0  0  0  0  0  0  0
    6.1282   -2.5614    0.5390 H   0  0  0  0  0  0  0  0  0  0  0  0
    7.5663   -2.5131   -0.4647 H   0  0  0  0  0  0  0  0  0  0  0  0
    5.4065   -4.7054   -0.4958 H   0  0  0  0  0  0  0  0  0  0  0  0
    7.0131   -4.8489    0.1929 H   0  0  0  0  0  0  0  0  0  0  0  0
    6.6777   -5.9220   -2.0901 H   0  0  0  0  0  0  0  0  0  0  0  0
    8.7937   -3.7316   -1.8563 H   0  0  0  0  0  0  0  0  0  0  0  0
    8.8926   -5.6319   -0.1718 H   0  0  0  0  0  0  0  0  0  0  0  0
   10.3128   -5.4300   -1.1800 H   0  0  0  0  0  0  0  0  0  0  0  0
    8.1057   -7.5444   -1.5478 H   0  0  0  0  0  0  0  0  0  0  0  0
    9.7425   -7.8369   -0.9717 H   0  0  0  0  0  0  0  0  0  0  0  0
    9.2993   -8.4587   -3.3915 H   0  0  0  0  0  0  0  0  0  0  0  0
   11.5435   -6.4297   -2.9592 H   0  0  0  0  0  0  0  0  0  0  0  0
   11.3821   -7.5445   -4.3356 H   0  0  0  0  0  0  0  0  0  0  0  0
   13.3973   -8.4808   -3.6915 H   0  0  0  0  0  0  0  0  0  0  0  0
   13.6877   -6.6156   -2.0120 H   0  0  0  0  0  0  0  0  0  0  0  0
   14.9717   -7.8348   -1.9443 H   0  0  0  0  0  0  0  0  0  0  0  0
   12.5653   -7.6911   -0.0283 H   0  0  0  0  0  0  0  0  0  0  0  0
   14.2257   -7.2282    0.3713 H   0  0  0  0  0  0  0  0  0  0  0  0
   13.5921   -9.5555    1.1745 H   0  0  0  0  0  0  0  0  0  0  0  0
   15.6497  -10.1501    2.0205 H   0  0  0  0  0  0  0  0  0  0  0  0
   15.9785   -8.4471    1.6151 H   0  0  0  0  0  0  0  0  0  0  0  0
   17.5898  -10.8612    0.5736 H   0  0  0  0  0  0  0  0  0  0  0  0
   18.1125   -9.7394    1.8658 H   0  0  0  0  0  0  0  0  0  0  0  0
   17.9270   -9.1555    0.1863 H   0  0  0  0  0  0  0  0  0  0  0  0
   12.0870  -10.1436   -0.6076 H   0  0  0  0  0  0  0  0  0  0  0  0
   12.7491  -10.7503   -2.8459 H   0  0  0  0  0  0  0  0  0  0  0  0
    7.8434   -6.7095   -4.1261 H   0  0  0  0  0  0  0  0  0  0  0  0
    9.3181   -6.5386   -5.0713 H   0  0  0  0  0  0  0  0  0  0  0  0
    8.5306   -4.3120   -4.3004 H   0  0  0  0  0  0  0  0  0  0  0  0
   10.0939   -4.6766   -3.6001 H   0  0  0  0  0  0  0  0  0  0  0  0
    5.0936   -4.4148   -3.0115 H   0  0  0  0  0  0  0  0  0  0  0  0
    6.4666   -4.4011   -4.0994 H   0  0  0  0  0  0  0  0  0  0  0  0
    5.6391   -2.0903   -3.7408 H   0  0  0  0  0  0  0  0  0  0  0  0
    7.2740   -2.2464   -3.1019 H   0  0  0  0  0  0  0  0  0  0  0  0
  1  2  1  0
  1 31  1  0
  1 32  1  0
  1 33  1  0
  2  3  1  0
  2 34  1  0
  2 35  1  0
  3  4  1  0
  3 36  1  0
  3 37  1  0
  4  5  1  0
  4 38  1  0
  4 39  1  0
  5  6  1  0
  5 40  1  0
  5 41  1  0
  6  7  1  0
  6 30  1  0
  6 42  1  6
  7  8  1  0
  7 43  1  0
  7 44  1  0
  8  9  1  0
  8 45  1  0
  8 46  1  0
  9 10  1  0
  9 29  1  0
  9 47  1  1
 10 11  1  0
 10 28  1  0
 10 48  1  1
 11 12  1  0
 11 49  1  0
 11 50  1  0
 12 13  1  0
 12 51  1  0
 12 52  1  0
 13 14  1  0
 13 27  1  0
 13 53  1  6
 14 15  1  0
 14 54  1  0
 14 55  1  0
 15 16  1  0
 16 17  1  0
 16 25  1  0
 16 56  1  6
 17 18  1  0
 17 57  1  0
 17 58  1  0
 18 19  1  0
 18 59  1  0
 18 60  1  0
 19 20  1  0
 19 23  1  0
 19 61  1  1
 20 21  1  0
 21 22  1  0
 21 62  1  0
 21 63  1  0
 22 64  1  0
 22 65  1  0
 22 66  1  0
 23 24  1  0
 23 25  1  0
 23 67  1  6
 25 26  1  0
 25 68  1  6
 27 28  1  0
 27 69  1  0
 27 70  1  0
 28 71  1  0
 28 72  1  0
 29 30  1  0
 29 73  1  0
 29 74  1  0
 30 75  1  0
 30 76  1  0
M  END

