
     RDKit          3D

 49 50  0  0  0  0  0  0  0  0999 V2000
    5.0525    3.8535   -2.9253 C   0  0  0  0  0  0  0  0  0  0  0  0
    5.7016    4.9676   -2.3626 O   0  0  0  0  0  0  0  0  0  0  0  0
    5.4131    5.3269   -1.0876 C   0  0  0  0  0  0  0  0  0  0  0  0
    4.5081    4.6679   -0.2525 C   0  0  0  0  0  0  0  0  0  0  0  0
    4.2623    5.1093    1.0636 C   0  0  0  0  0  0  0  0  0  0  0  0
    3.3088    4.3423    1.9843 C   0  0  1  0  0  0  0  0  0  0  0  0
    3.1319    4.9679    3.2319 O   0  0  0  0  0  0  0  0  0  0  0  0
    1.9223    4.0504    1.3573 C   0  0  1  0  0  0  0  0  0  0  0  0
    1.1841    2.9038    2.0399 C   0  0  0  0  0  0  0  0  0  0  0  0
   -0.1066    2.7328    1.5059 O   0  0  0  0  0  0  0  0  0  0  0  0
    1.0809    5.2097    1.5340 O   0  0  0  0  0  0  0  0  0  0  0  0
    0.9655    6.1403    0.5460 C   0  0  0  0  0  0  0  0  0  0  0  0
    0.4070    5.8456   -0.6964 C   0  0  0  0  0  0  0  0  0  0  0  0
    0.2563    6.8484   -1.6564 C   0  0  0  0  0  0  0  0  0  0  0  0
    0.6516    8.1689   -1.3831 C   0  0  0  0  0  0  0  0  0  0  0  0
    0.4735    9.1898   -2.4129 C   0  0  0  0  0  0  0  0  0  0  0  0
    0.7741   10.5070   -2.3498 C   0  0  0  0  0  0  0  0  0  0  0  0
    0.5296   11.3985   -3.4883 C   0  0  0  0  0  0  0  0  0  0  0  0
    0.7751   12.5857   -3.4997 O   0  0  0  0  0  0  0  0  0  0  0  0
    1.2064    8.4641   -0.1158 C   0  0  0  0  0  0  0  0  0  0  0  0
    1.3663    7.4687    0.8450 C   0  0  0  0  0  0  0  0  0  0  0  0
    1.8920    7.6563    2.0822 O   0  0  0  0  0  0  0  0  0  0  0  0
    2.3535    8.9423    2.4464 C   0  0  0  0  0  0  0  0  0  0  0  0
    4.9637    6.2165    1.5370 C   0  0  0  0  0  0  0  0  0  0  0  0
    5.8733    6.8874    0.7071 C   0  0  0  0  0  0  0  0  0  0  0  0
    6.1077    6.4639   -0.5990 C   0  0  0  0  0  0  0  0  0  0  0  0
    6.9760    7.0733   -1.4446 O   0  0  0  0  0  0  0  0  0  0  0  0
    5.4290    3.7571   -3.9526 H   0  0  0  0  0  0  0  0  0  0  0  0
    3.9554    3.9878   -2.9583 H   0  0  0  0  0  0  0  0  0  0  0  0
    5.2776    2.9213   -2.3747 H   0  0  0  0  0  0  0  0  0  0  0  0
    3.9892    3.7865   -0.6311 H   0  0  0  0  0  0  0  0  0  0  0  0
    3.7736    3.3612    2.1975 H   0  0  0  0  0  0  0  0  0  0  0  0
    2.5443    5.7277    3.0729 H   0  0  0  0  0  0  0  0  0  0  0  0
    2.0070    3.8293    0.2820 H   0  0  0  0  0  0  0  0  0  0  0  0
    1.1724    3.0930    3.1305 H   0  0  0  0  0  0  0  0  0  0  0  0
    1.7385    1.9670    1.8694 H   0  0  0  0  0  0  0  0  0  0  0  0
   -0.5748    3.5665    1.6563 H   0  0  0  0  0  0  0  0  0  0  0  0
    0.0770    4.8225   -0.8907 H   0  0  0  0  0  0  0  0  0  0  0  0
   -0.1838    6.6068   -2.6268 H   0  0  0  0  0  0  0  0  0  0  0  0
    0.0392    8.8246   -3.3525 H   0  0  0  0  0  0  0  0  0  0  0  0
    1.2092   10.9781   -1.4633 H   0  0  0  0  0  0  0  0  0  0  0  0
    0.0821   10.8915   -4.3860 H   0  0  0  0  0  0  0  0  0  0  0  0
    1.5202    9.4836    0.1022 H   0  0  0  0  0  0  0  0  0  0  0  0
    2.7372    8.8564    3.4713 H   0  0  0  0  0  0  0  0  0  0  0  0
    1.5370    9.6850    2.4295 H   0  0  0  0  0  0  0  0  0  0  0  0
    3.1679    9.2820    1.7833 H   0  0  0  0  0  0  0  0  0  0  0  0
    4.8101    6.5453    2.5645 H   0  0  0  0  0  0  0  0  0  0  0  0
    6.4225    7.7557    1.0871 H   0  0  0  0  0  0  0  0  0  0  0  0
    7.3871    7.8191   -0.9885 H   0  0  0  0  0  0  0  0  0  0  0  0
  1  2  1  0
  1 28  1  0
  1 29  1  0
  1 30  1  0
  2  3  1  0
  3  4  2  0
  3 26  1  0
  4  5  1  0
  4 31  1  0
  5  6  1  0
  5 24  2  0
  6  7  1  0
  6  8  1  0
  6 32  1  1
  7 33  1  0
  8  9  1  0
  8 11  1  0
  8 34  1  6
  9 10  1  0
  9 35  1  0
  9 36  1  0
 10 37  1  0
 11 12  1  0
 12 13  2  0
 12 21  1  0
 13 14  1  0
 13 38  1  0
 14 15  2  0
 14 39  1  0
 15 16  1  0
 15 20  1  0
 16 17  2  0
 16 40  1  0
 17 18  1  0
 17 41  1  0
 18 19  2  0
 18 42  1  0
 20 21  2  0
 20 43  1  0
 21 22  1  0
 22 23  1  0
 23 44  1  0
 23 45  1  0
 23 46  1  0
 24 25  1  0
 24 47  1  0
 25 26  2  0
 25 48  1  0
 26 27  1  0
 27 49  1  0
M  END

