
     RDKit          3D

 45 45  0  0  0  0  0  0  0  0999 V2000
    0.7254   -0.0909   -0.5105 C   0  0  0  0  0  0  0  0  0  0  0  0
    2.2460    0.0585   -0.4688 C   0  0  0  0  0  0  0  0  0  0  0  0
    2.7240    1.4715   -0.8019 C   0  0  0  0  0  0  0  0  0  0  0  0
    4.1728    1.5702   -0.7266 N   0  0  0  0  0  0  0  0  0  0  0  0
    4.7356    2.8652   -1.0908 C   0  0  1  0  0  0  0  0  0  0  0  0
    4.3622    3.8999   -0.0312 C   0  0  0  0  0  0  0  0  0  0  0  0
    4.7096    3.7009    1.3149 C   0  0  0  0  0  0  0  0  0  0  0  0
    4.3529    4.6272    2.2921 C   0  0  0  0  0  0  0  0  0  0  0  0
    3.6276    5.7757    1.9509 C   0  0  0  0  0  0  0  0  0  0  0  0
    3.1978    6.9168    3.1934 Cl  0  0  0  0  0  0  0  0  0  0  0  0
    3.2553    5.9770    0.6135 C   0  0  0  0  0  0  0  0  0  0  0  0
    2.3341    7.3766    0.1354 Cl  0  0  0  0  0  0  0  0  0  0  0  0
    3.6210    5.0392   -0.3594 C   0  0  0  0  0  0  0  0  0  0  0  0
    6.2977    2.7130   -1.2626 C   0  0  1  0  0  0  0  0  0  0  0  0
    6.6353    1.3630   -1.5606 O   0  0  0  0  0  0  0  0  0  0  0  0
    7.1451    0.5997   -0.4884 C   0  0  0  0  0  0  0  0  0  0  0  0
    6.9485    3.6090   -2.3629 C   0  0  1  0  0  0  0  0  0  0  0  0
    6.6309    5.0970   -2.1334 C   0  0  0  0  0  0  0  0  0  0  0  0
    8.4772    3.4208   -2.2760 C   0  0  0  0  0  0  0  0  0  0  0  0
    6.4760    3.1823   -3.7661 C   0  0  0  0  0  0  0  0  0  0  0  0
    0.4163   -1.1196   -0.2669 H   0  0  0  0  0  0  0  0  0  0  0  0
    0.3226    0.1489   -1.5088 H   0  0  0  0  0  0  0  0  0  0  0  0
    0.2362    0.5827    0.2129 H   0  0  0  0  0  0  0  0  0  0  0  0
    2.7071   -0.6545   -1.1778 H   0  0  0  0  0  0  0  0  0  0  0  0
    2.6308   -0.2125    0.5292 H   0  0  0  0  0  0  0  0  0  0  0  0
    2.2781    2.1831   -0.0850 H   0  0  0  0  0  0  0  0  0  0  0  0
    2.3315    1.7671   -1.8037 H   0  0  0  0  0  0  0  0  0  0  0  0
    4.6072    0.8676   -1.3235 H   0  0  0  0  0  0  0  0  0  0  0  0
    4.3130    3.2231   -2.0542 H   0  0  0  0  0  0  0  0  0  0  0  0
    5.2501    2.7972    1.6031 H   0  0  0  0  0  0  0  0  0  0  0  0
    4.6270    4.4716    3.3370 H   0  0  0  0  0  0  0  0  0  0  0  0
    3.3062    5.2155   -1.3899 H   0  0  0  0  0  0  0  0  0  0  0  0
    6.7639    2.9876   -0.2994 H   0  0  0  0  0  0  0  0  0  0  0  0
    7.4053   -0.3920   -0.8884 H   0  0  0  0  0  0  0  0  0  0  0  0
    6.3999    0.4749    0.3172 H   0  0  0  0  0  0  0  0  0  0  0  0
    8.0601    1.0554   -0.0641 H   0  0  0  0  0  0  0  0  0  0  0  0
    6.8983    5.4212   -1.1146 H   0  0  0  0  0  0  0  0  0  0  0  0
    5.5691    5.3308   -2.2923 H   0  0  0  0  0  0  0  0  0  0  0  0
    7.2086    5.7134   -2.8413 H   0  0  0  0  0  0  0  0  0  0  0  0
    8.8637    3.7355   -1.2920 H   0  0  0  0  0  0  0  0  0  0  0  0
    8.9844    4.0295   -3.0417 H   0  0  0  0  0  0  0  0  0  0  0  0
    8.7577    2.3698   -2.4359 H   0  0  0  0  0  0  0  0  0  0  0  0
    5.3966    3.3501   -3.9093 H   0  0  0  0  0  0  0  0  0  0  0  0
    6.6832    2.1167   -3.9408 H   0  0  0  0  0  0  0  0  0  0  0  0
    7.0019    3.7671   -4.5379 H   0  0  0  0  0  0  0  0  0  0  0  0
  1  2  1  0
  1 21  1  0
  1 22  1  0
  1 23  1  0
  2  3  1  0
  2 24  1  0
  2 25  1  0
  3  4  1  0
  3 26  1  0
  3 27  1  0
  4  5  1  0
  4 28  1  0
  5  6  1  0
  5 14  1  0
  5 29  1  6
  6  7  2  0
  6 13  1  0
  7  8  1  0
  7 30  1  0
  8  9  2  0
  8 31  1  0
  9 10  1  0
  9 11  1  0
 11 12  1  0
 11 13  2  0
 13 32  1  0
 14 15  1  0
 14 17  1  0
 14 33  1  1
 15 16  1  0
 16 34  1  0
 16 35  1  0
 16 36  1  0
 17 18  1  1
 17 19  1  0
 17 20  1  0
 18 37  1  0
 18 38  1  0
 18 39  1  0
 19 40  1  0
 19 41  1  0
 19 42  1  0
 20 43  1  0
 20 44  1  0
 20 45  1  0
M  END

