
     RDKit          3D

 32 32  0  0  0  0  0  0  0  0999 V2000
    5.6765   -2.3050    1.3923 C   0  0  0  0  0  0  0  0  0  0  0  0
    4.7429   -1.3235    0.6949 C   0  0  1  0  0  0  0  0  0  0  0  0
    3.3230   -1.8724    0.5502 C   0  0  0  0  0  0  0  0  0  0  0  0
    4.7712   -0.1155    1.4549 O   0  0  0  0  0  0  0  0  0  0  0  0
    4.2272    1.0438    0.8442 C   0  0  0  0  0  0  0  0  0  0  0  0
    4.7035    2.2599    1.6263 C   0  0  0  0  0  0  0  0  0  0  0  0
    6.2381    2.4836    1.5430 C   0  0  0  0  0  0  0  0  0  0  0  0
    6.8812    2.8813    2.8483 C   0  0  0  0  0  0  0  0  0  0  0  0
    7.3218    4.1860    3.0871 C   0  0  0  0  0  0  0  0  0  0  0  0
    7.8949    4.6208    4.2132 N   0  0  0  0  0  0  0  0  0  0  0  0
    8.0552    3.7158    5.1828 C   0  0  0  0  0  0  0  0  0  0  0  0
    7.6654    2.3834    5.0774 C   0  0  0  0  0  0  0  0  0  0  0  0
    7.0598    1.9276    3.8878 C   0  0  0  0  0  0  0  0  0  0  0  0
    6.6954    0.6151    3.7278 N   0  0  0  0  0  0  0  0  0  0  0  0
    5.7673   -3.2359    0.8120 H   0  0  0  0  0  0  0  0  0  0  0  0
    5.2891   -2.5606    2.3921 H   0  0  0  0  0  0  0  0  0  0  0  0
    6.6793   -1.8680    1.5122 H   0  0  0  0  0  0  0  0  0  0  0  0
    5.1447   -1.1037   -0.3163 H   0  0  0  0  0  0  0  0  0  0  0  0
    2.8847   -2.0645    1.5430 H   0  0  0  0  0  0  0  0  0  0  0  0
    3.3318   -2.8184   -0.0138 H   0  0  0  0  0  0  0  0  0  0  0  0
    2.6642   -1.1735    0.0126 H   0  0  0  0  0  0  0  0  0  0  0  0
    3.1213    1.0029    0.8379 H   0  0  0  0  0  0  0  0  0  0  0  0
    4.5612    1.1032   -0.2124 H   0  0  0  0  0  0  0  0  0  0  0  0
    4.3923    2.1283    2.6760 H   0  0  0  0  0  0  0  0  0  0  0  0
    4.1665    3.1514    1.2634 H   0  0  0  0  0  0  0  0  0  0  0  0
    6.4584    3.2498    0.7829 H   0  0  0  0  0  0  0  0  0  0  0  0
    6.7113    1.5523    1.1853 H   0  0  0  0  0  0  0  0  0  0  0  0
    7.1972    4.9305    2.2884 H   0  0  0  0  0  0  0  0  0  0  0  0
    8.5246    4.0672    6.1104 H   0  0  0  0  0  0  0  0  0  0  0  0
    7.8305    1.6935    5.9101 H   0  0  0  0  0  0  0  0  0  0  0  0
    6.7017    0.0226    4.5478 H   0  0  0  0  0  0  0  0  0  0  0  0
    6.0506    0.3383    2.9895 H   0  0  0  0  0  0  0  0  0  0  0  0
  1  2  1  0
  1 15  1  0
  1 16  1  0
  1 17  1  0
  2  3  1  0
  2  4  1  0
  2 18  1  6
  3 19  1  0
  3 20  1  0
  3 21  1  0
  4  5  1  0
  5  6  1  0
  5 22  1  0
  5 23  1  0
  6  7  1  0
  6 24  1  0
  6 25  1  0
  7  8  1  0
  7 26  1  0
  7 27  1  0
  8  9  2  0
  8 13  1  0
  9 10  1  0
  9 28  1  0
 10 11  2  0
 11 12  1  0
 11 29  1  0
 12 13  2  0
 12 30  1  0
 13 14  1  0
 14 31  1  0
 14 32  1  0
M  END

