
     RDKit          3D

 38 39  0  0  0  0  0  0  0  0999 V2000
    1.2169   -0.5030    0.0088 C   0  0  0  0  0  0  0  0  0  0  0  0
    2.6848   -0.2201   -0.2027 C   0  0  0  0  0  0  0  0  0  0  0  0
    3.1895    1.0851   -0.2252 C   0  0  0  0  0  0  0  0  0  0  0  0
    4.5498    1.3411   -0.4100 C   0  0  0  0  0  0  0  0  0  0  0  0
    5.4493    0.2773   -0.5797 C   0  0  0  0  0  0  0  0  0  0  0  0
    6.8297    0.4816   -0.7697 N   0  0  0  0  0  0  0  0  0  0  0  0
    7.5337    1.6501   -0.8367 C   0  0  0  0  0  0  0  0  0  0  0  0
    7.0832    2.7792   -0.7400 O   0  0  0  0  0  0  0  0  0  0  0  0
    9.0394    1.4465   -1.0475 C   0  0  1  0  0  0  0  0  0  0  0  0
    9.8878    1.9975    0.1121 C   0  0  0  0  0  0  0  0  0  0  0  0
   11.1206    1.0914    0.0630 C   0  0  0  0  0  0  0  0  0  0  0  0
   10.5247   -0.2615   -0.3389 C   0  0  2  0  0  0  0  0  0  0  0  0
   11.4424   -1.1967   -1.1215 C   0  0  0  0  0  0  0  0  0  0  0  0
   11.9129   -0.5620   -2.3429 N   0  0  0  0  0  0  0  0  0  0  0  0
    9.3898    0.0652   -1.1701 O   0  0  0  0  0  0  0  0  0  0  0  0
    4.9694   -1.0566   -0.5637 C   0  0  0  0  0  0  0  0  0  0  0  0
    5.9110   -2.2229   -0.7465 C   0  0  0  0  0  0  0  0  0  0  0  0
    3.6007   -1.2698   -0.3759 C   0  0  0  0  0  0  0  0  0  0  0  0
    0.6242    0.4239    0.0081 H   0  0  0  0  0  0  0  0  0  0  0  0
    1.0382   -1.0105    0.9727 H   0  0  0  0  0  0  0  0  0  0  0  0
    0.8134   -1.1611   -0.7787 H   0  0  0  0  0  0  0  0  0  0  0  0
    2.5073    1.9305   -0.0965 H   0  0  0  0  0  0  0  0  0  0  0  0
    4.9312    2.3597   -0.4273 H   0  0  0  0  0  0  0  0  0  0  0  0
    7.4180   -0.3378   -0.8936 H   0  0  0  0  0  0  0  0  0  0  0  0
    9.2932    1.9691   -1.9885 H   0  0  0  0  0  0  0  0  0  0  0  0
    9.3476    1.8751    1.0653 H   0  0  0  0  0  0  0  0  0  0  0  0
   10.1065    3.0666   -0.0106 H   0  0  0  0  0  0  0  0  0  0  0  0
   11.6607    1.0400    1.0203 H   0  0  0  0  0  0  0  0  0  0  0  0
   11.8217    1.4164   -0.7207 H   0  0  0  0  0  0  0  0  0  0  0  0
   10.1580   -0.8000    0.5572 H   0  0  0  0  0  0  0  0  0  0  0  0
   10.8962   -2.1514   -1.2809 H   0  0  0  0  0  0  0  0  0  0  0  0
   12.3078   -1.4365   -0.4791 H   0  0  0  0  0  0  0  0  0  0  0  0
   11.1205   -0.4102   -2.9676 H   0  0  0  0  0  0  0  0  0  0  0  0
   12.5699   -1.1642   -2.8361 H   0  0  0  0  0  0  0  0  0  0  0  0
    6.4391   -2.1821   -1.7159 H   0  0  0  0  0  0  0  0  0  0  0  0
    5.3669   -3.1771   -0.7110 H   0  0  0  0  0  0  0  0  0  0  0  0
    6.6850   -2.2578    0.0410 H   0  0  0  0  0  0  0  0  0  0  0  0
    3.2345   -2.3017   -0.3656 H   0  0  0  0  0  0  0  0  0  0  0  0
  1  2  1  0
  1 19  1  0
  1 20  1  0
  1 21  1  0
  2  3  2  0
  2 18  1  0
  3  4  1  0
  3 22  1  0
  4  5  2  0
  4 23  1  0
  5  6  1  0
  5 16  1  0
  6  7  1  0
  6 24  1  0
  7  8  2  0
  7  9  1  0
  9 10  1  0
  9 15  1  0
  9 25  1  6
 10 11  1  0
 10 26  1  0
 10 27  1  0
 11 12  1  0
 11 28  1  0
 11 29  1  0
 12 13  1  0
 12 15  1  0
 12 30  1  1
 13 14  1  0
 13 31  1  0
 13 32  1  0
 14 33  1  0
 14 34  1  0
 16 17  1  0
 16 18  2  0
 17 35  1  0
 17 36  1  0
 17 37  1  0
 18 38  1  0
M  END

