
     RDKit          3D

 21 21  0  0  0  0  0  0  0  0999 V2000
    1.0288    0.2609   -0.3281 N   0  0  0  0  0  0  0  0  0  0  0  0
    2.1807    0.1685   -0.2160 C   0  0  0  0  0  0  0  0  0  0  0  0
    3.6058    0.1044   -0.0739 C   0  0  0  0  0  0  0  0  0  0  0  0
    4.3603    1.2815    0.0251 C   0  0  0  0  0  0  0  0  0  0  0  0
    5.7391    1.2101    0.1745 C   0  0  0  0  0  0  0  0  0  0  0  0
    6.3882   -0.0381    0.2140 C   0  0  0  0  0  0  0  0  0  0  0  0
    7.8914   -0.0638    0.3035 C   0  0  0  0  0  0  0  0  0  0  0  0
    8.5829   -0.8937   -0.2301 O   0  0  0  0  0  0  0  0  0  0  0  0
    8.4557    0.9297    1.0221 O   0  0  0  0  0  0  0  0  0  0  0  0
    5.6568   -1.2401    0.1047 C   0  0  0  0  0  0  0  0  0  0  0  0
    6.3474   -2.5913    0.0572 C   0  0  0  0  0  0  0  0  0  0  0  0
    5.4816   -3.5993    0.5931 O   0  0  0  0  0  0  0  0  0  0  0  0
    4.2466   -1.1610   -0.0399 C   0  0  0  0  0  0  0  0  0  0  0  0
    3.4664   -2.2365   -0.1596 O   0  0  0  0  0  0  0  0  0  0  0  0
    3.8538    2.2469   -0.0225 H   0  0  0  0  0  0  0  0  0  0  0  0
    6.3203    2.1341    0.2096 H   0  0  0  0  0  0  0  0  0  0  0  0
    7.7754    1.4369    1.4884 H   0  0  0  0  0  0  0  0  0  0  0  0
    7.2908   -2.5665    0.6185 H   0  0  0  0  0  0  0  0  0  0  0  0
    6.6131   -2.8225   -0.9922 H   0  0  0  0  0  0  0  0  0  0  0  0
    5.8787   -4.4671    0.4445 H   0  0  0  0  0  0  0  0  0  0  0  0
    4.0037   -3.0309    0.0677 H   0  0  0  0  0  0  0  0  0  0  0  0
  1  2  3  0
  2  3  1  0
  3  4  2  0
  3 13  1  0
  4  5  1  0
  4 15  1  0
  5  6  2  0
  5 16  1  0
  6  7  1  0
  6 10  1  0
  7  8  2  0
  7  9  1  0
  9 17  1  0
 10 11  1  0
 10 13  2  0
 11 12  1  0
 11 18  1  0
 11 19  1  0
 12 20  1  0
 13 14  1  0
 14 21  1  0
M  END

