
     RDKit          3D

 31 32  0  0  0  0  0  0  0  0999 V2000
    1.0250    1.4354   -1.7944 N   0  0  0  0  0  0  0  0  0  0  0  0
    2.1169    1.7122   -1.5252 C   0  0  0  0  0  0  0  0  0  0  0  0
    3.5058    2.0504   -1.1896 C   0  0  1  0  0  0  0  0  0  0  0  0
    3.5101    3.0758   -0.0314 C   0  0  0  0  0  0  0  0  0  0  0  0
    3.4791    4.2689   -0.2157 O   0  0  0  0  0  0  0  0  0  0  0  0
    3.5356    2.5010    1.2180 N   0  0  0  0  0  0  0  0  0  0  0  0
    3.6498    1.1326    1.5463 C   0  0  0  0  0  0  0  0  0  0  0  0
    3.5482    0.7553    2.6914 O   0  0  0  0  0  0  0  0  0  0  0  0
    3.8619    0.3131    0.4698 N   0  0  0  0  0  0  0  0  0  0  0  0
    4.3141    0.7784   -0.8415 C   0  0  2  0  0  0  0  0  0  0  0  0
    5.8333    0.9450   -0.9295 C   0  0  0  0  0  0  0  0  0  0  0  0
    6.4893    2.1817   -0.8454 C   0  0  0  0  0  0  0  0  0  0  0  0
    7.8856    2.2418   -0.8935 C   0  0  0  0  0  0  0  0  0  0  0  0
    8.6403    1.0766   -1.0257 C   0  0  0  0  0  0  0  0  0  0  0  0
    8.0052   -0.1709   -1.1141 C   0  0  0  0  0  0  0  0  0  0  0  0
    8.8101   -1.4351   -1.3090 C   0  0  0  0  0  0  0  0  0  0  0  0
    9.0102   -1.8048   -2.7700 C   0  0  1  0  0  0  0  0  0  0  0  0
    9.6546   -0.8383   -3.4448 F   0  0  0  0  0  0  0  0  0  0  0  0
    9.7361   -2.9296   -2.8812 F   0  0  0  0  0  0  0  0  0  0  0  0
    7.8373   -2.0188   -3.3933 F   0  0  0  0  0  0  0  0  0  0  0  0
    6.6068   -0.2172   -1.0723 C   0  0  0  0  0  0  0  0  0  0  0  0
    3.9464    2.5626   -2.0570 H   0  0  0  0  0  0  0  0  0  0  0  0
    3.4559    3.1271    2.0164 H   0  0  0  0  0  0  0  0  0  0  0  0
    4.0098   -0.6582    0.7205 H   0  0  0  0  0  0  0  0  0  0  0  0
    4.0282   -0.0006   -1.5637 H   0  0  0  0  0  0  0  0  0  0  0  0
    5.9315    3.1152   -0.7508 H   0  0  0  0  0  0  0  0  0  0  0  0
    8.3860    3.2108   -0.8294 H   0  0  0  0  0  0  0  0  0  0  0  0
    9.7308    1.1350   -1.0680 H   0  0  0  0  0  0  0  0  0  0  0  0
    8.3228   -2.2974   -0.8298 H   0  0  0  0  0  0  0  0  0  0  0  0
    9.8130   -1.3371   -0.8679 H   0  0  0  0  0  0  0  0  0  0  0  0
    6.1069   -1.1869   -1.1621 H   0  0  0  0  0  0  0  0  0  0  0  0
  1  2  3  0
  2  3  1  0
  3  4  1  0
  3 10  1  0
  3 22  1  6
  4  5  2  0
  4  6  1  0
  6  7  1  0
  6 23  1  0
  7  8  2  0
  7  9  1  0
  9 10  1  0
  9 24  1  0
 10 11  1  0
 10 25  1  6
 11 12  2  0
 11 21  1  0
 12 13  1  0
 12 26  1  0
 13 14  2  0
 13 27  1  0
 14 15  1  0
 14 28  1  0
 15 16  1  0
 15 21  2  0
 16 17  1  0
 16 29  1  0
 16 30  1  0
 17 18  1  6
 17 19  1  0
 17 20  1  0
 21 31  1  0
M  END

