
     RDKit          3D

 40 40  0  0  0  0  0  0  0  0999 V2000
    1.3135    0.6123    0.9301 C   0  0  0  0  0  0  0  0  0  0  0  0
    2.6572    0.3940    0.4161 N   0  0  0  0  0  0  0  0  0  0  0  0
    3.2836    1.5217   -0.2792 C   0  0  0  0  0  0  0  0  0  0  0  0
    3.0544    1.6691   -1.8141 C   0  0  1  0  0  0  0  0  0  0  0  0
    1.5580    1.6840   -2.1715 C   0  0  0  0  0  0  0  0  0  0  0  0
    3.6857    3.0161   -2.2175 C   0  0  0  0  0  0  0  0  0  0  0  0
    3.7522    0.5373   -2.5904 C   0  0  0  0  0  0  0  0  0  0  0  0
    3.1321   -0.9181    0.3534 C   0  0  0  0  0  0  0  0  0  0  0  0
    2.1989   -1.9835    0.2859 C   0  0  0  0  0  0  0  0  0  0  0  0
    2.5901   -3.3147    0.2048 C   0  0  0  0  0  0  0  0  0  0  0  0
    3.9469   -3.6478    0.1808 C   0  0  0  0  0  0  0  0  0  0  0  0
    4.3907   -5.0741    0.0192 C   0  0  1  0  0  0  0  0  0  0  0  0
    3.4838   -5.9413    0.5069 F   0  0  0  0  0  0  0  0  0  0  0  0
    4.5774   -5.4014   -1.2784 F   0  0  0  0  0  0  0  0  0  0  0  0
    5.5584   -5.3141    0.6450 F   0  0  0  0  0  0  0  0  0  0  0  0
    4.8874   -2.6198    0.2763 C   0  0  0  0  0  0  0  0  0  0  0  0
    4.5183   -1.2726    0.3887 C   0  0  0  0  0  0  0  0  0  0  0  0
    5.6304   -0.3052    0.6874 C   0  0  0  0  0  0  0  0  0  0  0  0
    5.6530    0.5299    1.6613 N   0  0  0  0  0  0  0  0  0  0  0  0
    6.7347   -0.4329   -0.1259 N   0  0  0  0  0  0  0  0  0  0  0  0
    1.2162    1.6648    1.2336 H   0  0  0  0  0  0  0  0  0  0  0  0
    1.1386   -0.0126    1.8198 H   0  0  0  0  0  0  0  0  0  0  0  0
    0.5029    0.4039    0.2068 H   0  0  0  0  0  0  0  0  0  0  0  0
    4.3635    1.5239   -0.0878 H   0  0  0  0  0  0  0  0  0  0  0  0
    2.9036    2.4341    0.2085 H   0  0  0  0  0  0  0  0  0  0  0  0
    1.0134    2.4611   -1.6101 H   0  0  0  0  0  0  0  0  0  0  0  0
    1.0812    0.7139   -1.9637 H   0  0  0  0  0  0  0  0  0  0  0  0
    1.4194    1.8925   -3.2451 H   0  0  0  0  0  0  0  0  0  0  0  0
    3.1921    3.8611   -1.7094 H   0  0  0  0  0  0  0  0  0  0  0  0
    3.5967    3.1808   -3.3034 H   0  0  0  0  0  0  0  0  0  0  0  0
    4.7571    3.0513   -1.9600 H   0  0  0  0  0  0  0  0  0  0  0  0
    3.3253   -0.4487   -2.3533 H   0  0  0  0  0  0  0  0  0  0  0  0
    4.8293    0.5055   -2.3587 H   0  0  0  0  0  0  0  0  0  0  0  0
    3.6476    0.6917   -3.6771 H   0  0  0  0  0  0  0  0  0  0  0  0
    1.1336   -1.7591    0.2609 H   0  0  0  0  0  0  0  0  0  0  0  0
    1.8319   -4.0981    0.1471 H   0  0  0  0  0  0  0  0  0  0  0  0
    5.9492   -2.8685    0.3178 H   0  0  0  0  0  0  0  0  0  0  0  0
    4.7925    0.4582    2.2076 H   0  0  0  0  0  0  0  0  0  0  0  0
    6.6307   -0.8159   -1.0558 H   0  0  0  0  0  0  0  0  0  0  0  0
    7.4840    0.2332    0.0265 H   0  0  0  0  0  0  0  0  0  0  0  0
  1  2  1  0
  1 21  1  0
  1 22  1  0
  1 23  1  0
  2  3  1  0
  2  8  1  0
  4  3  1  1
  3 24  1  0
  3 25  1  0
  4  5  1  0
  4  6  1  0
  4  7  1  0
  5 26  1  0
  5 27  1  0
  5 28  1  0
  6 29  1  0
  6 30  1  0
  6 31  1  0
  7 32  1  0
  7 33  1  0
  7 34  1  0
  8  9  2  0
  8 17  1  0
  9 10  1  0
  9 35  1  0
 10 11  2  0
 10 36  1  0
 11 12  1  0
 11 16  1  0
 12 13  1  1
 12 14  1  0
 12 15  1  0
 16 17  2  0
 16 37  1  0
 17 18  1  0
 18 19  2  0
 18 20  1  0
 19 38  1  0
 20 39  1  0
 20 40  1  0
M  END

