
     RDKit          3D

 54 59  0  0  0  0  0  0  0  0999 V2000
    8.7412   -1.0426   -5.7448 O   0  0  0  0  0  0  0  0  0  0  0  0
    8.3008   -0.7053   -4.5114 C   0  0  0  0  0  0  0  0  0  0  0  0
    8.2573   -1.6548   -3.4473 C   0  0  0  0  0  0  0  0  0  0  0  0
    7.8333   -1.3758   -2.2395 N   0  0  0  0  0  0  0  0  0  0  0  0
    7.4106   -0.1187   -1.9708 C   0  0  0  0  0  0  0  0  0  0  0  0
    6.9533    0.2283   -0.6576 C   0  0  0  0  0  0  0  0  0  0  0  0
    6.9561   -0.6543    0.3714 O   0  0  0  0  0  0  0  0  0  0  0  0
    6.3576   -1.8973    0.2881 C   0  0  0  0  0  0  0  0  0  0  0  0
    6.9212   -2.9339    1.0315 C   0  0  0  0  0  0  0  0  0  0  0  0
    6.3261   -4.1952    1.0662 C   0  0  0  0  0  0  0  0  0  0  0  0
    5.1419   -4.4325    0.3433 C   0  0  0  0  0  0  0  0  0  0  0  0
    4.4604   -5.6637    0.3003 N   0  0  0  0  0  0  0  0  0  0  0  0
    4.7127   -6.8722    0.8994 C   0  0  0  0  0  0  0  0  0  0  0  0
    5.7582   -6.9899    1.7023 N   0  0  0  0  0  0  0  0  0  0  0  0
    5.9909   -8.1245    2.3709 N   0  0  0  0  0  0  0  0  0  0  0  0
    5.2131   -9.1817    2.2539 C   0  0  0  0  0  0  0  0  0  0  0  0
    5.5768  -10.3318    3.1279 C   0  0  0  0  0  0  0  0  0  0  0  0
    4.6176  -11.0641    3.8504 C   0  0  0  0  0  0  0  0  0  0  0  0
    4.9930  -12.1046    4.7030 C   0  0  0  0  0  0  0  0  0  0  0  0
    6.3460  -12.4226    4.8421 C   0  0  0  0  0  0  0  0  0  0  0  0
    6.8241  -13.7309    5.8996 Cl  0  0  0  0  0  0  0  0  0  0  0  0
    7.3217  -11.6984    4.1493 C   0  0  0  0  0  0  0  0  0  0  0  0
    6.9336  -10.6590    3.3060 C   0  0  0  0  0  0  0  0  0  0  0  0
    4.1146   -9.2048    1.3132 C   0  0  0  0  0  0  0  0  0  0  0  0
    3.3505  -10.3609    1.0055 C   0  0  0  0  0  0  0  0  0  0  0  0
    2.3318  -10.3111    0.0716 C   0  0  0  0  0  0  0  0  0  0  0  0
    2.0432   -9.1063   -0.6019 C   0  0  0  0  0  0  0  0  0  0  0  0
    2.7930   -7.9729   -0.3431 C   0  0  0  0  0  0  0  0  0  0  0  0
    3.8395   -7.9967    0.6112 C   0  0  0  0  0  0  0  0  0  0  0  0
    4.5812   -3.3729   -0.3968 C   0  0  0  0  0  0  0  0  0  0  0  0
    5.1742   -2.1135   -0.4233 C   0  0  0  0  0  0  0  0  0  0  0  0
    6.5839    1.5380   -0.4146 C   0  0  0  0  0  0  0  0  0  0  0  0
    6.6498    2.4784   -1.4715 C   0  0  0  0  0  0  0  0  0  0  0  0
    7.0417    2.2028   -2.6972 N   0  0  0  0  0  0  0  0  0  0  0  0
    7.4254    0.9234   -2.9585 C   0  0  0  0  0  0  0  0  0  0  0  0
    7.8824    0.5867   -4.2574 C   0  0  0  0  0  0  0  0  0  0  0  0
    9.0081   -1.9720   -5.7549 H   0  0  0  0  0  0  0  0  0  0  0  0
    8.5980   -2.6842   -3.6371 H   0  0  0  0  0  0  0  0  0  0  0  0
    7.8416   -2.7428    1.5865 H   0  0  0  0  0  0  0  0  0  0  0  0
    6.7627   -5.0052    1.6445 H   0  0  0  0  0  0  0  0  0  0  0  0
    3.6150   -5.6305   -0.2514 H   0  0  0  0  0  0  0  0  0  0  0  0
    3.5601  -10.8019    3.7774 H   0  0  0  0  0  0  0  0  0  0  0  0
    4.2430  -12.6608    5.2678 H   0  0  0  0  0  0  0  0  0  0  0  0
    8.3759  -11.9513    4.2748 H   0  0  0  0  0  0  0  0  0  0  0  0
    7.6872  -10.0759    2.7744 H   0  0  0  0  0  0  0  0  0  0  0  0
    3.5857  -11.3036    1.4986 H   0  0  0  0  0  0  0  0  0  0  0  0
    1.7567  -11.2120   -0.1554 H   0  0  0  0  0  0  0  0  0  0  0  0
    1.2406   -9.0721   -1.3423 H   0  0  0  0  0  0  0  0  0  0  0  0
    2.5707   -7.0657   -0.9098 H   0  0  0  0  0  0  0  0  0  0  0  0
    3.6564   -3.5348   -0.9600 H   0  0  0  0  0  0  0  0  0  0  0  0
    4.7160   -1.3043   -0.9951 H   0  0  0  0  0  0  0  0  0  0  0  0
    6.2477    1.8296    0.5817 H   0  0  0  0  0  0  0  0  0  0  0  0
    6.3490    3.5151   -1.2732 H   0  0  0  0  0  0  0  0  0  0  0  0
    7.9039    1.3549   -5.0316 H   0  0  0  0  0  0  0  0  0  0  0  0
  1  2  1  0
  1 37  1  0
  2  3  2  0
  2 36  1  0
  3  4  1  0
  3 38  1  0
  4  5  2  0
  5  6  1  0
  5 35  1  0
  6  7  1  0
  6 32  2  0
  7  8  1  0
  8  9  2  0
  8 31  1  0
  9 10  1  0
  9 39  1  0
 10 11  2  0
 10 40  1  0
 11 12  1  0
 11 30  1  0
 12 13  1  0
 12 41  1  0
 13 14  2  0
 13 29  1  0
 14 15  1  0
 15 16  2  0
 16 17  1  0
 16 24  1  0
 17 18  2  0
 17 23  1  0
 18 19  1  0
 18 42  1  0
 19 20  2  0
 19 43  1  0
 20 21  1  0
 20 22  1  0
 22 23  2  0
 22 44  1  0
 23 45  1  0
 24 25  1  0
 24 29  2  0
 25 26  2  0
 25 46  1  0
 26 27  1  0
 26 47  1  0
 27 28  2  0
 27 48  1  0
 28 29  1  0
 28 49  1  0
 30 31  2  0
 30 50  1  0
 31 51  1  0
 32 33  1  0
 32 52  1  0
 33 34  2  0
 33 53  1  0
 34 35  1  0
 35 36  2  0
 36 54  1  0
M  END

