
     RDKit          3D

 45 46  0  0  0  0  0  0  0  0999 V2000
    0.8709   -0.4398    0.1520 C   0  0  0  0  0  0  0  0  0  0  0  0
    2.2862    0.1273    0.1101 C   0  0  1  0  0  0  0  0  0  0  0  0
    2.7679    0.3973    1.4402 O   0  0  0  0  0  0  0  0  0  0  0  0
    2.6006    1.6304    1.9656 C   0  0  0  0  0  0  0  0  0  0  0  0
    2.0264    2.5318    1.4044 O   0  0  0  0  0  0  0  0  0  0  0  0
    3.2608    1.7409    3.3031 C   0  0  0  0  0  0  0  0  0  0  0  0
    3.3692    3.0012    3.9109 C   0  0  0  0  0  0  0  0  0  0  0  0
    4.0690    3.1296    5.1111 C   0  0  0  0  0  0  0  0  0  0  0  0
    4.6779    2.0126    5.6958 C   0  0  0  0  0  0  0  0  0  0  0  0
    4.5599    0.7448    5.1043 C   0  0  0  0  0  0  0  0  0  0  0  0
    5.2491   -0.4635    5.6686 C   0  0  0  0  0  0  0  0  0  0  0  0
    6.5274   -1.1876    4.5532 S   0  0  1  0  0  0  0  0  0  0  0  0
    7.7847    0.0953    4.3797 C   0  0  0  0  0  0  0  0  0  0  0  0
    7.1202   -2.3178    5.2767 O   0  0  0  0  0  0  0  0  0  0  0  0
    5.9235   -1.3891    3.2227 O   0  0  0  0  0  0  0  0  0  0  0  0
    3.8248    0.6194    3.9184 C   0  0  0  0  0  0  0  0  0  0  0  0
    3.2320   -0.8596   -0.5849 C   0  0  0  0  0  0  0  0  0  0  0  0
    3.0289   -1.1652   -1.7420 O   0  0  0  0  0  0  0  0  0  0  0  0
    4.2532   -1.3669    0.1854 N   0  0  0  0  0  0  0  0  0  0  0  0
    5.0508   -2.4372   -0.2231 C   0  0  0  0  0  0  0  0  0  0  0  0
    6.7905   -2.2989   -0.1983 S   0  0  0  0  0  0  0  0  0  0  0  0
    6.9761   -3.8856   -0.8602 C   0  0  0  0  0  0  0  0  0  0  0  0
    5.7652   -4.4714   -1.1165 C   0  0  0  0  0  0  0  0  0  0  0  0
    4.6485   -3.6500   -0.7507 C   0  0  0  0  0  0  0  0  0  0  0  0
    3.2108   -4.0667   -0.8460 C   0  0  0  0  0  0  0  0  0  0  0  0
    2.9365   -4.9285   -1.8773 N   0  0  0  0  0  0  0  0  0  0  0  0
    2.3591   -3.7145   -0.0477 O   0  0  0  0  0  0  0  0  0  0  0  0
    0.1848    0.2888    0.6078 H   0  0  0  0  0  0  0  0  0  0  0  0
    0.8534   -1.3830    0.7176 H   0  0  0  0  0  0  0  0  0  0  0  0
    0.5428   -0.6489   -0.8755 H   0  0  0  0  0  0  0  0  0  0  0  0
    2.3006    1.0678   -0.4611 H   0  0  0  0  0  0  0  0  0  0  0  0
    2.9131    3.8638    3.4213 H   0  0  0  0  0  0  0  0  0  0  0  0
    4.1573    4.1076    5.5900 H   0  0  0  0  0  0  0  0  0  0  0  0
    5.2457    2.1287    6.6235 H   0  0  0  0  0  0  0  0  0  0  0  0
    4.5774   -1.3275    5.7963 H   0  0  0  0  0  0  0  0  0  0  0  0
    5.7583   -0.2789    6.6250 H   0  0  0  0  0  0  0  0  0  0  0  0
    8.2515    0.2779    5.3564 H   0  0  0  0  0  0  0  0  0  0  0  0
    7.3295    1.0033    3.9639 H   0  0  0  0  0  0  0  0  0  0  0  0
    8.5159   -0.3261    3.6762 H   0  0  0  0  0  0  0  0  0  0  0  0
    3.7196   -0.3577    3.4526 H   0  0  0  0  0  0  0  0  0  0  0  0
    4.3585   -1.0267    1.1378 H   0  0  0  0  0  0  0  0  0  0  0  0
    7.9697   -4.3124   -0.9885 H   0  0  0  0  0  0  0  0  0  0  0  0
    5.6626   -5.4853   -1.5058 H   0  0  0  0  0  0  0  0  0  0  0  0
    3.5449   -4.9577   -2.6862 H   0  0  0  0  0  0  0  0  0  0  0  0
    1.9557   -5.1389   -2.0292 H   0  0  0  0  0  0  0  0  0  0  0  0
  1  2  1  0
  1 28  1  0
  1 29  1  0
  1 30  1  0
  2  3  1  0
  2 17  1  0
  2 31  1  6
  3  4  1  0
  4  5  2  0
  4  6  1  0
  6  7  2  0
  6 16  1  0
  7  8  1  0
  7 32  1  0
  8  9  2  0
  8 33  1  0
  9 10  1  0
  9 34  1  0
 10 11  1  0
 10 16  2  0
 12 11  1  1
 11 35  1  0
 11 36  1  0
 12 13  1  0
 12 14  2  0
 12 15  2  0
 13 37  1  0
 13 38  1  0
 13 39  1  0
 16 40  1  0
 17 18  2  0
 17 19  1  0
 19 20  1  0
 19 41  1  0
 20 21  2  0
 20 24  1  0
 21 22  1  0
 22 23  2  0
 22 42  1  0
 23 24  1  0
 23 43  1  0
 24 25  2  0
 25 26  1  0
 25 27  1  0
 26 44  1  0
 26 45  1  0
M  CHG  2  21   1  27  -1
M  END

