
     RDKit          3D

 36 36  0  0  0  0  0  0  0  0999 V2000
    1.4658   -0.5881    0.9145 C   0  0  0  0  0  0  0  0  0  0  0  0
    2.6831   -0.1116    0.1309 C   0  0  0  0  0  0  0  0  0  0  0  0
    2.8534    1.4076    0.1690 C   0  0  0  0  0  0  0  0  0  0  0  0
    2.1116    2.1377    0.7948 O   0  0  0  0  0  0  0  0  0  0  0  0
    3.9327    1.8595   -0.5731 N   0  0  0  0  0  0  0  0  0  0  0  0
    4.3945    3.1676   -0.7657 C   0  0  0  0  0  0  0  0  0  0  0  0
    3.7778    4.3012   -0.1976 C   0  0  0  0  0  0  0  0  0  0  0  0
    4.3049    5.5634   -0.4461 C   0  0  0  0  0  0  0  0  0  0  0  0
    5.4467    5.7514   -1.2468 C   0  0  0  0  0  0  0  0  0  0  0  0
    5.9416    7.1480   -1.4363 C   0  0  0  0  0  0  0  0  0  0  0  0
    5.3472    8.0979   -0.9630 O   0  0  0  0  0  0  0  0  0  0  0  0
    7.2383    7.3869   -2.2294 C   0  0  1  0  0  0  0  0  0  0  0  0
    6.6583    7.3409   -4.1483 Br  0  0  0  0  0  0  0  0  0  0  0  0
    7.9575    8.6900   -1.8650 C   0  0  1  0  0  0  0  0  0  0  0  0
    8.4153    8.6212   -0.3953 C   0  0  0  0  0  0  0  0  0  0  0  0
    9.1515    8.9915   -2.7773 C   0  0  0  0  0  0  0  0  0  0  0  0
    6.0521    4.6134   -1.8102 C   0  0  0  0  0  0  0  0  0  0  0  0
    5.5349    3.3452   -1.5749 C   0  0  0  0  0  0  0  0  0  0  0  0
    1.3817   -1.6845    0.8720 H   0  0  0  0  0  0  0  0  0  0  0  0
    0.5409   -0.1517    0.5097 H   0  0  0  0  0  0  0  0  0  0  0  0
    1.5335   -0.2834    1.9690 H   0  0  0  0  0  0  0  0  0  0  0  0
    2.6199   -0.4282   -0.9263 H   0  0  0  0  0  0  0  0  0  0  0  0
    3.6083   -0.5698    0.5264 H   0  0  0  0  0  0  0  0  0  0  0  0
    4.4709    1.1437   -1.0487 H   0  0  0  0  0  0  0  0  0  0  0  0
    2.8971    4.1720    0.4265 H   0  0  0  0  0  0  0  0  0  0  0  0
    3.8332    6.4476   -0.0134 H   0  0  0  0  0  0  0  0  0  0  0  0
    7.9239    6.5336   -2.1500 H   0  0  0  0  0  0  0  0  0  0  0  0
    7.2154    9.4997   -1.9526 H   0  0  0  0  0  0  0  0  0  0  0  0
    9.1323    7.7968   -0.2381 H   0  0  0  0  0  0  0  0  0  0  0  0
    7.5707    8.4874    0.2944 H   0  0  0  0  0  0  0  0  0  0  0  0
    8.9257    9.5571   -0.1190 H   0  0  0  0  0  0  0  0  0  0  0  0
    9.9060    8.1872   -2.7274 H   0  0  0  0  0  0  0  0  0  0  0  0
    9.6420    9.9254   -2.4609 H   0  0  0  0  0  0  0  0  0  0  0  0
    8.8491    9.1058   -3.8276 H   0  0  0  0  0  0  0  0  0  0  0  0
    6.9228    4.7062   -2.4608 H   0  0  0  0  0  0  0  0  0  0  0  0
    6.0170    2.4738   -2.0282 H   0  0  0  0  0  0  0  0  0  0  0  0
  1  2  1  0
  1 19  1  0
  1 20  1  0
  1 21  1  0
  2  3  1  0
  2 22  1  0
  2 23  1  0
  3  4  2  0
  3  5  1  0
  5  6  1  0
  5 24  1  0
  6  7  2  0
  6 18  1  0
  7  8  1  0
  7 25  1  0
  8  9  2  0
  8 26  1  0
  9 10  1  0
  9 17  1  0
 10 11  2  0
 10 12  1  0
 12 13  1  0
 12 14  1  0
 12 27  1  6
 14 15  1  0
 14 16  1  0
 14 28  1  1
 15 29  1  0
 15 30  1  0
 15 31  1  0
 16 32  1  0
 16 33  1  0
 16 34  1  0
 17 18  2  0
 17 35  1  0
 18 36  1  0
M  END

