
     RDKit          3D

 43 46  0  0  0  0  0  0  0  0999 V2000
    1.2446    0.8546   -0.8036 N   0  0  0  0  0  0  0  0  0  0  0  0
    2.3690    0.5685   -0.7571 C   0  0  0  0  0  0  0  0  0  0  0  0
    3.7596    0.2085   -0.7057 C   0  0  0  0  0  0  0  0  0  0  0  0
    4.7489    1.1606   -1.0107 C   0  0  0  0  0  0  0  0  0  0  0  0
    6.0954    0.8021   -0.9352 C   0  0  0  0  0  0  0  0  0  0  0  0
    6.4599   -0.4926   -0.5627 C   0  0  0  0  0  0  0  0  0  0  0  0
    5.4805   -1.4623   -0.2911 C   0  0  0  0  0  0  0  0  0  0  0  0
    5.9516   -2.8182    0.1854 C   0  0  0  0  0  0  0  0  0  0  0  0
    6.8568   -2.8827    1.0059 O   0  0  0  0  0  0  0  0  0  0  0  0
    5.3442   -3.9344   -0.3244 N   0  0  0  0  0  0  0  0  0  0  0  0
    5.8288   -5.2632    0.0893 C   0  0  0  0  0  0  0  0  0  0  0  0
    5.6308   -6.1274   -1.1560 C   0  0  0  0  0  0  0  0  0  0  0  0
    4.3732   -5.5240   -1.7989 C   0  0  2  0  0  0  0  0  0  0  0  0
    4.1340   -5.8816   -3.2688 C   0  0  0  0  0  0  0  0  0  0  0  0
    3.8167   -7.3327   -3.4699 C   0  0  0  0  0  0  0  0  0  0  0  0
    3.0704   -8.0927   -2.6885 N   0  0  0  0  0  0  0  0  0  0  0  0
    3.0628   -9.3080   -3.3196 C   0  0  0  0  0  0  0  0  0  0  0  0
    2.3413  -10.4894   -2.8047 C   0  0  1  0  0  0  0  0  0  0  0  0
    2.2327  -10.7110   -1.3092 C   0  0  0  0  0  0  0  0  0  0  0  0
    1.0182  -10.3059   -2.0882 C   0  0  0  0  0  0  0  0  0  0  0  0
    3.7647   -9.3354   -4.4444 N   0  0  0  0  0  0  0  0  0  0  0  0
    4.2391   -8.0717   -4.5231 N   0  0  0  0  0  0  0  0  0  0  0  0
    4.8248   -7.7943   -5.3023 H   0  0  0  0  0  0  0  0  0  0  0  0
    4.5448   -4.0127   -1.5578 C   0  0  0  0  0  0  0  0  0  0  0  0
    4.1305   -1.1022   -0.3506 C   0  0  0  0  0  0  0  0  0  0  0  0
    4.4555    2.1734   -1.2930 H   0  0  0  0  0  0  0  0  0  0  0  0
    6.8665    1.5431   -1.1579 H   0  0  0  0  0  0  0  0  0  0  0  0
    7.5114   -0.7696   -0.4650 H   0  0  0  0  0  0  0  0  0  0  0  0
    5.2311   -5.6382    0.9395 H   0  0  0  0  0  0  0  0  0  0  0  0
    6.8698   -5.1841    0.4293 H   0  0  0  0  0  0  0  0  0  0  0  0
    5.5182   -7.1955   -0.9224 H   0  0  0  0  0  0  0  0  0  0  0  0
    6.4946   -6.0162   -1.8357 H   0  0  0  0  0  0  0  0  0  0  0  0
    3.4978   -5.8754   -1.2281 H   0  0  0  0  0  0  0  0  0  0  0  0
    5.0129   -5.6067   -3.8777 H   0  0  0  0  0  0  0  0  0  0  0  0
    3.2895   -5.2811   -3.6539 H   0  0  0  0  0  0  0  0  0  0  0  0
    2.4554  -11.3702   -3.4409 H   0  0  0  0  0  0  0  0  0  0  0  0
    2.6967   -9.9574   -0.6674 H   0  0  0  0  0  0  0  0  0  0  0  0
    2.3070  -11.7391   -0.9439 H   0  0  0  0  0  0  0  0  0  0  0  0
    0.6625   -9.2786   -1.9733 H   0  0  0  0  0  0  0  0  0  0  0  0
    0.2367  -11.0487   -2.2715 H   0  0  0  0  0  0  0  0  0  0  0  0
    3.5693   -3.5142   -1.4626 H   0  0  0  0  0  0  0  0  0  0  0  0
    5.0775   -3.5319   -2.3994 H   0  0  0  0  0  0  0  0  0  0  0  0
    3.3515   -1.8216   -0.0949 H   0  0  0  0  0  0  0  0  0  0  0  0
  1  2  3  0
  2  3  1  0
  3  4  2  0
  3 25  1  0
  4  5  1  0
  4 26  1  0
  5  6  2  0
  5 27  1  0
  6  7  1  0
  6 28  1  0
  7  8  1  0
  7 25  2  0
  8  9  2  0
  8 10  1  0
 10 11  1  0
 10 24  1  0
 11 12  1  0
 11 29  1  0
 11 30  1  0
 12 13  1  0
 12 31  1  0
 12 32  1  0
 13 14  1  0
 13 24  1  0
 13 33  1  1
 14 15  1  0
 14 34  1  0
 14 35  1  0
 15 16  2  0
 15 22  1  0
 16 17  1  0
 17 18  1  0
 17 21  2  0
 18 19  1  0
 18 20  1  0
 18 36  1  6
 19 20  1  0
 19 37  1  0
 19 38  1  0
 20 39  1  0
 20 40  1  0
 21 22  1  0
 22 23  1  0
 24 41  1  0
 24 42  1  0
 25 43  1  0
M  END

