
     RDKit          3D

 34 33  0  0  0  0  0  0  0  0999 V2000
    2.6949   -2.1612    0.0777 C   0  0  0  0  0  0  0  0  0  0  0  0
    2.4531   -1.5929   -1.3328 C   0  0  1  0  0  0  0  0  0  0  0  0
    2.9200   -2.6088   -2.3920 C   0  0  0  0  0  0  0  0  0  0  0  0
    0.9484   -1.3207   -1.5192 C   0  0  0  0  0  0  0  0  0  0  0  0
    3.2033   -0.2410   -1.5175 C   0  0  0  0  0  0  0  0  0  0  0  0
    4.7233   -0.3362   -1.5092 C   0  0  0  0  0  0  0  0  0  0  0  0
    5.3673   -0.6603   -0.5205 O   0  0  0  0  0  0  0  0  0  0  0  0
    5.3432   -0.0317   -2.6915 N   0  0  0  0  0  0  0  0  0  0  0  0
    6.7872   -0.0555   -2.8174 C   0  0  0  0  0  0  0  0  0  0  0  0
    7.3416   -1.4828   -2.9794 C   0  0  0  0  0  0  0  0  0  0  0  0
    8.7913   -1.5089   -3.0845 N   0  0  0  0  0  0  0  0  0  0  0  0
    9.4165   -1.2798   -4.2624 C   0  0  0  0  0  0  0  0  0  0  0  0
    8.8712   -1.0517   -5.3225 O   0  0  0  0  0  0  0  0  0  0  0  0
   10.9638   -1.3497   -4.1995 C   0  0  1  0  0  0  0  0  0  0  0  0
   11.4166   -1.5332   -2.9389 F   0  0  0  0  0  0  0  0  0  0  0  0
   11.4095   -2.3635   -4.9434 F   0  0  0  0  0  0  0  0  0  0  0  0
   11.4952   -0.2182   -4.6622 F   0  0  0  0  0  0  0  0  0  0  0  0
    2.1677   -3.1219    0.1992 H   0  0  0  0  0  0  0  0  0  0  0  0
    2.3174   -1.4707    0.8497 H   0  0  0  0  0  0  0  0  0  0  0  0
    3.7653   -2.3160    0.2700 H   0  0  0  0  0  0  0  0  0  0  0  0
    2.3396   -3.5425   -2.3170 H   0  0  0  0  0  0  0  0  0  0  0  0
    3.9823   -2.8706   -2.2636 H   0  0  0  0  0  0  0  0  0  0  0  0
    2.7867   -2.2175   -3.4149 H   0  0  0  0  0  0  0  0  0  0  0  0
    0.3631   -2.2419   -1.3657 H   0  0  0  0  0  0  0  0  0  0  0  0
    0.7267   -0.9475   -2.5330 H   0  0  0  0  0  0  0  0  0  0  0  0
    0.5863   -0.5704   -0.7974 H   0  0  0  0  0  0  0  0  0  0  0  0
    2.9252    0.4349   -0.6920 H   0  0  0  0  0  0  0  0  0  0  0  0
    2.8591    0.2338   -2.4518 H   0  0  0  0  0  0  0  0  0  0  0  0
    4.7833    0.2100   -3.4989 H   0  0  0  0  0  0  0  0  0  0  0  0
    7.2260    0.3976   -1.9144 H   0  0  0  0  0  0  0  0  0  0  0  0
    7.0775    0.5501   -3.6882 H   0  0  0  0  0  0  0  0  0  0  0  0
    6.9226   -1.9392   -3.8888 H   0  0  0  0  0  0  0  0  0  0  0  0
    7.0425   -2.0848   -2.1104 H   0  0  0  0  0  0  0  0  0  0  0  0
    9.3519   -1.6435   -2.2510 H   0  0  0  0  0  0  0  0  0  0  0  0
  2  1  1  1
  1 18  1  0
  1 19  1  0
  1 20  1  0
  2  3  1  0
  2  4  1  0
  2  5  1  0
  3 21  1  0
  3 22  1  0
  3 23  1  0
  4 24  1  0
  4 25  1  0
  4 26  1  0
  5  6  1  0
  5 27  1  0
  5 28  1  0
  6  7  2  0
  6  8  1  0
  8  9  1  0
  8 29  1  0
  9 10  1  0
  9 30  1  0
  9 31  1  0
 10 11  1  0
 10 32  1  0
 10 33  1  0
 11 12  1  0
 11 34  1  0
 12 13  2  0
 12 14  1  0
 14 15  1  1
 14 16  1  0
 14 17  1  0
M  END

