
     RDKit          3D

 65 68  0  0  0  0  0  0  0  0999 V2000
    7.6007    6.0210   -4.4682 C   0  0  0  0  0  0  0  0  0  0  0  0
    6.8793    4.8556   -5.1222 C   0  0  0  0  0  0  0  0  0  0  0  0
    7.1925    3.6033   -4.4752 O   0  0  0  0  0  0  0  0  0  0  0  0
    6.4550    3.2428   -3.4145 C   0  0  0  0  0  0  0  0  0  0  0  0
    5.5494    3.9135   -2.9736 O   0  0  0  0  0  0  0  0  0  0  0  0
    6.8512    1.8661   -2.8797 C   0  0  1  0  0  0  0  0  0  0  0  0
    6.3451    1.1490   -3.5529 H   0  0  0  0  0  0  0  0  0  0  0  0
    8.3659    1.5852   -2.9180 C   0  0  0  0  0  0  0  0  0  0  0  0
    9.1049    2.3808   -1.8363 C   0  0  0  0  0  0  0  0  0  0  0  0
    8.4785    2.1537   -0.4572 C   0  0  0  0  0  0  0  0  0  0  0  0
    7.0423    2.4295   -0.4781 N   0  0  0  0  0  0  0  0  0  0  0  0
    6.5242    3.3706    0.3864 C   0  0  0  0  0  0  0  0  0  0  0  0
    7.2468    4.0037    1.1413 O   0  0  0  0  0  0  0  0  0  0  0  0
    5.0021    3.5938    0.3426 C   0  0  0  0  0  0  0  0  0  0  0  0
    4.5056    4.5193    1.4256 C   0  0  0  0  0  0  0  0  0  0  0  0
    3.6495    4.0627    2.4364 C   0  0  0  0  0  0  0  0  0  0  0  0
    3.2270    4.9264    3.4519 C   0  0  0  0  0  0  0  0  0  0  0  0
    3.6729    6.2470    3.4867 C   0  0  0  0  0  0  0  0  0  0  0  0
    4.5155    6.7226    2.4706 C   0  0  0  0  0  0  0  0  0  0  0  0
    5.0521    8.0467    2.5211 N   0  0  0  0  0  0  0  0  0  0  0  0
    6.5223    8.1626    2.6369 C   0  0  0  0  0  0  0  0  0  0  0  0
    7.0782    7.6734    3.9600 C   0  0  0  0  0  0  0  0  0  0  0  0
    7.6424    6.3927    4.0671 C   0  0  0  0  0  0  0  0  0  0  0  0
    8.1498    5.9441    5.2914 C   0  0  0  0  0  0  0  0  0  0  0  0
    8.0974    6.7676    6.4192 C   0  0  0  0  0  0  0  0  0  0  0  0
    7.5316    8.0438    6.3205 C   0  0  0  0  0  0  0  0  0  0  0  0
    7.0243    8.4941    5.0993 C   0  0  0  0  0  0  0  0  0  0  0  0
    4.3106    9.1903    2.7451 C   0  0  0  0  0  0  0  0  0  0  0  0
    4.8115   10.2259    3.1701 O   0  0  0  0  0  0  0  0  0  0  0  0
    2.8664    9.1962    2.4049 C   0  0  0  0  0  0  0  0  0  0  0  0
    1.9220   10.1306    2.7553 C   0  0  0  0  0  0  0  0  0  0  0  0
    0.7059    9.7296    2.1239 C   0  0  0  0  0  0  0  0  0  0  0  0
    1.0045    8.5882    1.4284 C   0  0  0  0  0  0  0  0  0  0  0  0
    2.3043    8.2604    1.5896 O   0  0  0  0  0  0  0  0  0  0  0  0
    4.9102    5.8599    1.4438 C   0  0  0  0  0  0  0  0  0  0  0  0
    6.2917    1.6591   -1.4602 C   0  0  0  0  0  0  0  0  0  0  0  0
    7.3953    6.9473   -5.0282 H   0  0  0  0  0  0  0  0  0  0  0  0
    8.6898    5.8593   -4.4613 H   0  0  0  0  0  0  0  0  0  0  0  0
    7.2560    6.1656   -3.4337 H   0  0  0  0  0  0  0  0  0  0  0  0
    7.2037    4.7164   -6.1635 H   0  0  0  0  0  0  0  0  0  0  0  0
    5.7896    5.0019   -5.0997 H   0  0  0  0  0  0  0  0  0  0  0  0
    8.7661    1.8057   -3.9174 H   0  0  0  0  0  0  0  0  0  0  0  0
    8.5154    0.5051   -2.7424 H   0  0  0  0  0  0  0  0  0  0  0  0
    9.0750    3.4583   -2.0744 H   0  0  0  0  0  0  0  0  0  0  0  0
   10.1686    2.0919   -1.8093 H   0  0  0  0  0  0  0  0  0  0  0  0
    8.9263    2.8014    0.3052 H   0  0  0  0  0  0  0  0  0  0  0  0
    8.6349    1.1015   -0.1477 H   0  0  0  0  0  0  0  0  0  0  0  0
    4.4873    2.6233    0.4204 H   0  0  0  0  0  0  0  0  0  0  0  0
    4.7612    3.9924   -0.6577 H   0  0  0  0  0  0  0  0  0  0  0  0
    3.3204    3.0197    2.4385 H   0  0  0  0  0  0  0  0  0  0  0  0
    2.5673    4.5573    4.2414 H   0  0  0  0  0  0  0  0  0  0  0  0
    3.3845    6.9097    4.3050 H   0  0  0  0  0  0  0  0  0  0  0  0
    6.7595    9.2237    2.4938 H   0  0  0  0  0  0  0  0  0  0  0  0
    6.9733    7.5892    1.8144 H   0  0  0  0  0  0  0  0  0  0  0  0
    7.6760    5.7372    3.1915 H   0  0  0  0  0  0  0  0  0  0  0  0
    8.5869    4.9444    5.3618 H   0  0  0  0  0  0  0  0  0  0  0  0
    8.4965    6.4169    7.3749 H   0  0  0  0  0  0  0  0  0  0  0  0
    7.4887    8.6931    7.1993 H   0  0  0  0  0  0  0  0  0  0  0  0
    6.5763    9.4875    5.0151 H   0  0  0  0  0  0  0  0  0  0  0  0
    2.1041   10.9970    3.3856 H   0  0  0  0  0  0  0  0  0  0  0  0
   -0.2627   10.2225    2.1743 H   0  0  0  0  0  0  0  0  0  0  0  0
    0.4193    7.9263    0.7948 H   0  0  0  0  0  0  0  0  0  0  0  0
    5.5661    6.2327    0.6558 H   0  0  0  0  0  0  0  0  0  0  0  0
    5.2351    1.9382   -1.4397 H   0  0  0  0  0  0  0  0  0  0  0  0
    6.3614    0.5823   -1.2135 H   0  0  0  0  0  0  0  0  0  0  0  0
  1  2  1  0
  1 37  1  0
  1 38  1  0
  1 39  1  0
  2  3  1  0
  2 40  1  0
  2 41  1  0
  3  4  1  0
  4  5  2  0
  4  6  1  0
  6  7  1  6
  6  8  1  0
  6 36  1  0
  8  9  1  0
  8 42  1  0
  8 43  1  0
  9 10  1  0
  9 44  1  0
  9 45  1  0
 10 11  1  0
 10 46  1  0
 10 47  1  0
 11 12  1  0
 11 36  1  0
 12 13  2  0
 12 14  1  0
 14 15  1  0
 14 48  1  0
 14 49  1  0
 15 16  2  0
 15 35  1  0
 16 17  1  0
 16 50  1  0
 17 18  2  0
 17 51  1  0
 18 19  1  0
 18 52  1  0
 19 20  1  0
 19 35  2  0
 20 21  1  0
 20 28  1  0
 21 22  1  0
 21 53  1  0
 21 54  1  0
 22 23  2  0
 22 27  1  0
 23 24  1  0
 23 55  1  0
 24 25  2  0
 24 56  1  0
 25 26  1  0
 25 57  1  0
 26 27  2  0
 26 58  1  0
 27 59  1  0
 28 29  2  0
 28 30  1  0
 30 31  2  0
 30 34  1  0
 31 32  1  0
 31 60  1  0
 32 33  2  0
 32 61  1  0
 33 34  1  0
 33 62  1  0
 35 63  1  0
 36 64  1  0
 36 65  1  0
M  END

