
     RDKit          3D

 34 34  0  0  0  0  0  0  0  0999 V2000
    5.4139   -1.7568   -1.0292 C   0  0  0  0  0  0  0  0  0  0  0  0
    4.5746   -0.6441   -0.4608 C   0  0  0  0  0  0  0  0  0  0  0  0
    5.0894    0.6151   -0.2109 C   0  0  0  0  0  0  0  0  0  0  0  0
    4.2586    1.6108    0.3270 C   0  0  0  0  0  0  0  0  0  0  0  0
    4.7868    2.9410    0.5950 N   0  0  0  0  0  0  0  0  0  0  0  0
    5.9666    3.1461    0.3379 O   0  0  0  0  0  0  0  0  0  0  0  0
    4.0227    3.7757    1.0616 O   0  0  0  0  0  0  0  0  0  0  0  0
    2.9241    1.3122    0.6006 C   0  0  0  0  0  0  0  0  0  0  0  0
    2.4059    0.1134    0.3650 N   0  0  0  0  0  0  0  0  0  0  0  0
    3.1885   -0.8525   -0.1471 C   0  0  0  0  0  0  0  0  0  0  0  0
    2.6191   -2.0739   -0.3465 N   0  0  0  0  0  0  0  0  0  0  0  0
    1.2097   -2.3632   -0.1303 C   0  0  0  0  0  0  0  0  0  0  0  0
    0.3214   -2.0573   -1.3416 C   0  0  0  0  0  0  0  0  0  0  0  0
   -1.1583   -2.3427   -1.0814 C   0  0  0  0  0  0  0  0  0  0  0  0
   -2.0702   -1.9738   -2.2610 C   0  0  1  0  0  0  0  0  0  0  0  0
   -3.5402   -2.2861   -1.9834 C   0  0  0  0  0  0  0  0  0  0  0  0
   -1.8972   -0.6191   -2.6521 O   0  0  0  0  0  0  0  0  0  0  0  0
    6.4479   -1.4256   -1.1985 H   0  0  0  0  0  0  0  0  0  0  0  0
    5.0187   -2.1141   -1.9976 H   0  0  0  0  0  0  0  0  0  0  0  0
    5.4491   -2.6274   -0.3499 H   0  0  0  0  0  0  0  0  0  0  0  0
    6.1326    0.8553   -0.4209 H   0  0  0  0  0  0  0  0  0  0  0  0
    2.2711    2.0827    1.0195 H   0  0  0  0  0  0  0  0  0  0  0  0
    3.1736   -2.7739   -0.8201 H   0  0  0  0  0  0  0  0  0  0  0  0
    0.8779   -1.7674    0.7317 H   0  0  0  0  0  0  0  0  0  0  0  0
    1.1249   -3.4274    0.1490 H   0  0  0  0  0  0  0  0  0  0  0  0
    0.6669   -2.6478   -2.2101 H   0  0  0  0  0  0  0  0  0  0  0  0
    0.4391   -0.9982   -1.6169 H   0  0  0  0  0  0  0  0  0  0  0  0
   -1.4925   -1.7778   -0.1890 H   0  0  0  0  0  0  0  0  0  0  0  0
   -1.3067   -3.4101   -0.8355 H   0  0  0  0  0  0  0  0  0  0  0  0
   -1.7463   -2.5559   -3.1423 H   0  0  0  0  0  0  0  0  0  0  0  0
   -3.8992   -1.7257   -1.1019 H   0  0  0  0  0  0  0  0  0  0  0  0
   -3.6968   -3.3581   -1.7821 H   0  0  0  0  0  0  0  0  0  0  0  0
   -4.1599   -1.9986   -2.8459 H   0  0  0  0  0  0  0  0  0  0  0  0
   -2.1976   -0.0573   -1.9234 H   0  0  0  0  0  0  0  0  0  0  0  0
  1  2  1  0
  1 18  1  0
  1 19  1  0
  1 20  1  0
  2  3  2  0
  2 10  1  0
  3  4  1  0
  3 21  1  0
  4  5  1  0
  4  8  2  0
  5  6  2  0
  5  7  1  0
  8  9  1  0
  8 22  1  0
  9 10  2  0
 10 11  1  0
 11 12  1  0
 11 23  1  0
 12 13  1  0
 12 24  1  0
 12 25  1  0
 13 14  1  0
 13 26  1  0
 13 27  1  0
 14 15  1  0
 14 28  1  0
 14 29  1  0
 15 16  1  0
 15 17  1  0
 15 30  1  6
 16 31  1  0
 16 32  1  0
 16 33  1  0
 17 34  1  0
M  CHG  2   5   1   7  -1
M  END

