
     RDKit          3D

 59 62  0  0  0  0  0  0  0  0999 V2000
    0.4066    0.9379    0.0697 C   0  0  0  0  0  0  0  0  0  0  0  0
    1.5158   -0.0634   -0.2711 C   0  0  1  0  0  0  0  0  0  0  0  0
    1.8450    0.0250   -1.6891 N   0  0  0  0  0  0  0  0  0  0  0  0
    1.8005   -1.0135   -2.5481 C   0  0  0  0  0  0  0  0  0  0  0  0
    1.4809   -2.1570   -2.2429 O   0  0  0  0  0  0  0  0  0  0  0  0
    2.2375   -0.5356   -3.9710 C   0  0  0  0  0  0  0  0  0  0  0  0
    2.6641    0.6145   -4.0682 O   0  0  0  0  0  0  0  0  0  0  0  0
    2.1501   -1.3788   -5.0323 N   0  0  0  0  0  0  0  0  0  0  0  0
    2.6276   -0.9092   -6.3373 C   0  0  0  0  0  0  0  0  0  0  0  0
    3.7036   -1.8467   -6.8971 C   0  0  0  0  0  0  0  0  0  0  0  0
    3.2470   -3.3184   -6.9594 C   0  0  2  0  0  0  0  0  0  0  0  0
    2.2589   -3.6155   -8.1175 C   0  0  0  0  0  0  0  0  0  0  0  0
    2.8336   -3.4064   -9.5026 C   0  0  0  0  0  0  0  0  0  0  0  0
    3.7513   -4.3249  -10.0415 C   0  0  0  0  0  0  0  0  0  0  0  0
    4.3022   -4.1344  -11.3108 C   0  0  0  0  0  0  0  0  0  0  0  0
    3.9437   -3.0171  -12.0723 C   0  0  0  0  0  0  0  0  0  0  0  0
    3.0292   -2.0972  -11.5535 C   0  0  0  0  0  0  0  0  0  0  0  0
    2.4810   -2.2929  -10.2816 C   0  0  0  0  0  0  0  0  0  0  0  0
    2.6696   -3.7252   -5.5885 C   0  0  0  0  0  0  0  0  0  0  0  0
    1.6157   -2.7457   -5.0576 C   0  0  0  0  0  0  0  0  0  0  0  0
    2.7857    0.1297    0.5799 C   0  0  2  0  0  0  0  0  0  0  0  0
    3.9068   -0.9348    0.3228 C   0  0  0  0  0  0  0  0  0  0  0  0
    4.2877   -1.4070    1.7445 C   0  0  2  0  0  0  0  0  0  0  0  0
    3.1496   -2.3021    2.2854 C   0  0  0  0  0  0  0  0  0  0  0  0
    1.9968   -1.2824    2.5523 C   0  0  0  0  0  0  0  0  0  0  0  0
    2.6156    0.0698    2.1241 C   0  0  1  0  0  0  0  0  0  0  0  0
    4.0822   -0.1181    2.5675 C   0  0  0  0  0  0  0  0  0  0  0  0
   -0.4687    0.7827   -0.5793 H   0  0  0  0  0  0  0  0  0  0  0  0
    0.7535    1.9764   -0.0675 H   0  0  0  0  0  0  0  0  0  0  0  0
    0.0806    0.8296    1.1148 H   0  0  0  0  0  0  0  0  0  0  0  0
    1.1363   -1.0867   -0.1311 H   0  0  0  0  0  0  0  0  0  0  0  0
    2.1824    0.8971   -2.0940 H   0  0  0  0  0  0  0  0  0  0  0  0
    3.0141    0.1080   -6.2078 H   0  0  0  0  0  0  0  0  0  0  0  0
    1.7632   -0.8526   -7.0247 H   0  0  0  0  0  0  0  0  0  0  0  0
    4.5931   -1.7765   -6.2480 H   0  0  0  0  0  0  0  0  0  0  0  0
    4.0110   -1.4918   -7.8939 H   0  0  0  0  0  0  0  0  0  0  0  0
    4.1412   -3.9384   -7.1453 H   0  0  0  0  0  0  0  0  0  0  0  0
    1.3466   -3.0067   -8.0103 H   0  0  0  0  0  0  0  0  0  0  0  0
    1.9358   -4.6663   -8.0188 H   0  0  0  0  0  0  0  0  0  0  0  0
    4.0330   -5.2079   -9.4595 H   0  0  0  0  0  0  0  0  0  0  0  0
    5.0110   -4.8646  -11.7104 H   0  0  0  0  0  0  0  0  0  0  0  0
    4.3719   -2.8679  -13.0667 H   0  0  0  0  0  0  0  0  0  0  0  0
    2.7371   -1.2231  -12.1417 H   0  0  0  0  0  0  0  0  0  0  0  0
    1.7601   -1.5698   -9.8887 H   0  0  0  0  0  0  0  0  0  0  0  0
    3.4888   -3.7754   -4.8509 H   0  0  0  0  0  0  0  0  0  0  0  0
    2.2264   -4.7341   -5.6394 H   0  0  0  0  0  0  0  0  0  0  0  0
    1.2971   -3.0251   -4.0509 H   0  0  0  0  0  0  0  0  0  0  0  0
    0.7253   -2.7483   -5.7141 H   0  0  0  0  0  0  0  0  0  0  0  0
    3.1794    1.1336    0.3354 H   0  0  0  0  0  0  0  0  0  0  0  0
    4.7701   -0.4863   -0.1930 H   0  0  0  0  0  0  0  0  0  0  0  0
    3.5510   -1.7682   -0.3025 H   0  0  0  0  0  0  0  0  0  0  0  0
    5.2836   -1.8705    1.8062 H   0  0  0  0  0  0  0  0  0  0  0  0
    3.4564   -2.8075    3.2151 H   0  0  0  0  0  0  0  0  0  0  0  0
    2.8663   -3.0869    1.5668 H   0  0  0  0  0  0  0  0  0  0  0  0
    1.7313   -1.2523    3.6208 H   0  0  0  0  0  0  0  0  0  0  0  0
    1.0738   -1.5288    2.0069 H   0  0  0  0  0  0  0  0  0  0  0  0
    2.1002    0.9463    2.5436 H   0  0  0  0  0  0  0  0  0  0  0  0
    4.1917   -0.2679    3.6541 H   0  0  0  0  0  0  0  0  0  0  0  0
    4.7403    0.7102    2.2581 H   0  0  0  0  0  0  0  0  0  0  0  0
  1  2  1  0
  1 28  1  0
  1 29  1  0
  1 30  1  0
  2  3  1  0
  2 21  1  0
  2 31  1  6
  3  4  1  0
  3 32  1  0
  4  5  2  0
  4  6  1  0
  6  7  2  0
  6  8  1  0
  8  9  1  0
  8 20  1  0
  9 10  1  0
  9 33  1  0
  9 34  1  0
 10 11  1  0
 10 35  1  0
 10 36  1  0
 11 12  1  0
 11 19  1  0
 11 37  1  6
 12 13  1  0
 12 38  1  0
 12 39  1  0
 13 14  2  0
 13 18  1  0
 14 15  1  0
 14 40  1  0
 15 16  2  0
 15 41  1  0
 16 17  1  0
 16 42  1  0
 17 18  2  0
 17 43  1  0
 18 44  1  0
 19 20  1  0
 19 45  1  0
 19 46  1  0
 20 47  1  0
 20 48  1  0
 21 22  1  0
 21 26  1  0
 21 49  1  1
 22 23  1  0
 22 50  1  0
 22 51  1  0
 23 24  1  0
 23 27  1  0
 23 52  1  6
 24 25  1  0
 24 53  1  0
 24 54  1  0
 25 26  1  0
 25 55  1  0
 25 56  1  0
 26 27  1  0
 26 57  1  1
 27 58  1  0
 27 59  1  0
M  END

