
     RDKit          3D

 73 76  0  0  0  0  0  0  0  0999 V2000
    1.4133   -1.4428   -4.8207 C   0  0  0  0  0  0  0  0  0  0  0  0
    1.6407   -0.0426   -4.8908 O   0  0  0  0  0  0  0  0  0  0  0  0
    2.9114    0.3822   -5.0310 C   0  0  0  0  0  0  0  0  0  0  0  0
    3.1060    1.7794   -5.1017 C   0  0  0  0  0  0  0  0  0  0  0  0
    4.3977    2.2778   -5.2412 C   0  0  0  0  0  0  0  0  0  0  0  0
    4.7321    3.7633   -5.3696 C   0  0  1  0  0  0  0  0  0  0  0  0
    3.5341    4.7303   -5.3866 C   0  0  0  0  0  0  0  0  0  0  0  0
    2.9417    5.0314   -4.0026 C   0  0  0  0  0  0  0  0  0  0  0  0
    3.9710    5.5093   -3.0826 N   0  0  0  0  0  0  0  0  0  0  0  0
    3.5204    6.0247   -1.7834 C   0  0  2  0  0  0  0  0  0  0  0  0
    3.4864    5.2044   -1.0301 H   0  0  0  0  0  0  0  0  0  0  0  0
    2.1418    6.6941   -1.7908 C   0  0  0  0  0  0  0  0  0  0  0  0
    1.8196    7.2717   -0.4070 C   0  0  0  0  0  0  0  0  0  0  0  0
    2.9180    8.1998    0.1300 C   0  0  1  0  0  0  0  0  0  0  0  0
    2.8847    9.5549   -0.6341 C   0  0  0  0  0  0  0  0  0  0  0  0
    1.8555   10.0217   -1.1038 O   0  0  0  0  0  0  0  0  0  0  0  0
    4.0855   10.1915   -0.6948 N   0  0  0  0  0  0  0  0  0  0  0  0
    4.2457   11.5083   -1.2939 C   0  0  0  0  0  0  0  0  0  0  0  0
    4.0810   12.6519   -0.3076 C   0  0  0  0  0  0  0  0  0  0  0  0
    5.1811   13.3963    0.1398 C   0  0  0  0  0  0  0  0  0  0  0  0
    5.0174   14.4228    1.0749 C   0  0  0  0  0  0  0  0  0  0  0  0
    3.7497   14.7169    1.5794 C   0  0  0  0  0  0  0  0  0  0  0  0
    2.6452   13.9805    1.1343 C   0  0  0  0  0  0  0  0  0  0  0  0
    1.2567   14.3002    1.6320 C   0  0  1  0  0  0  0  0  0  0  0  0
    1.2800   15.0180    2.7691 F   0  0  0  0  0  0  0  0  0  0  0  0
    0.5574   15.0141    0.7291 F   0  0  0  0  0  0  0  0  0  0  0  0
    0.5476   13.1822    1.8759 F   0  0  0  0  0  0  0  0  0  0  0  0
    2.8074   12.9594    0.1933 C   0  0  0  0  0  0  0  0  0  0  0  0
    2.7772    8.5048    1.6592 C   0  0  2  0  0  0  0  0  0  0  0  0
    3.0344    7.2664    2.5296 C   0  0  0  0  0  0  0  0  0  0  0  0
    1.4445    9.1695    2.0291 C   0  0  0  0  0  0  0  0  0  0  0  0
    4.2148    7.6048   -0.0124 O   0  0  0  0  0  0  0  0  0  0  0  0
    4.5298    7.0770   -1.2928 C   0  0  0  0  0  0  0  0  0  0  0  0
    5.0344    4.5142   -2.9490 C   0  0  0  0  0  0  0  0  0  0  0  0
    5.7238    4.2512   -4.2870 C   0  0  0  0  0  0  0  0  0  0  0  0
    5.4418    1.3257   -5.3172 C   0  0  0  0  0  0  0  0  0  0  0  0
    5.1387   -0.0264   -5.2407 C   0  0  0  0  0  0  0  0  0  0  0  0
    3.8929   -0.5030   -5.0952 N   0  0  0  0  0  0  0  0  0  0  0  0
    0.3278   -1.5671   -4.7105 H   0  0  0  0  0  0  0  0  0  0  0  0
    1.9353   -1.8919   -3.9610 H   0  0  0  0  0  0  0  0  0  0  0  0
    1.7624   -1.9523   -5.7328 H   0  0  0  0  0  0  0  0  0  0  0  0
    2.2268    2.4191   -5.0451 H   0  0  0  0  0  0  0  0  0  0  0  0
    5.2445    3.8548   -6.3441 H   0  0  0  0  0  0  0  0  0  0  0  0
    2.7395    4.3640   -6.0559 H   0  0  0  0  0  0  0  0  0  0  0  0
    3.8845    5.6862   -5.8100 H   0  0  0  0  0  0  0  0  0  0  0  0
    2.4248    4.1309   -3.6006 H   0  0  0  0  0  0  0  0  0  0  0  0
    2.1732    5.8053   -4.1289 H   0  0  0  0  0  0  0  0  0  0  0  0
    1.3526    5.9784   -2.0659 H   0  0  0  0  0  0  0  0  0  0  0  0
    2.1251    7.4997   -2.5452 H   0  0  0  0  0  0  0  0  0  0  0  0
    1.6819    6.4444    0.3060 H   0  0  0  0  0  0  0  0  0  0  0  0
    0.8794    7.8364   -0.4556 H   0  0  0  0  0  0  0  0  0  0  0  0
    4.8734    9.7313   -0.2514 H   0  0  0  0  0  0  0  0  0  0  0  0
    3.4863   11.5913   -2.0855 H   0  0  0  0  0  0  0  0  0  0  0  0
    5.2380   11.5601   -1.7672 H   0  0  0  0  0  0  0  0  0  0  0  0
    6.1795   13.1709   -0.2470 H   0  0  0  0  0  0  0  0  0  0  0  0
    5.8842   14.9942    1.4159 H   0  0  0  0  0  0  0  0  0  0  0  0
    3.6152   15.5096    2.3169 H   0  0  0  0  0  0  0  0  0  0  0  0
    1.9460   12.3844   -0.1541 H   0  0  0  0  0  0  0  0  0  0  0  0
    3.5851    9.2251    1.8799 H   0  0  0  0  0  0  0  0  0  0  0  0
    2.2257    6.5234    2.4366 H   0  0  0  0  0  0  0  0  0  0  0  0
    3.0818    7.5618    3.5898 H   0  0  0  0  0  0  0  0  0  0  0  0
    3.9823    6.7804    2.2631 H   0  0  0  0  0  0  0  0  0  0  0  0
    0.5949    8.4866    1.8675 H   0  0  0  0  0  0  0  0  0  0  0  0
    1.2509   10.0865    1.4551 H   0  0  0  0  0  0  0  0  0  0  0  0
    1.4484    9.4382    3.0972 H   0  0  0  0  0  0  0  0  0  0  0  0
    5.5389    6.6534   -1.1894 H   0  0  0  0  0  0  0  0  0  0  0  0
    4.5784    7.8770   -2.0564 H   0  0  0  0  0  0  0  0  0  0  0  0
    4.6370    3.5581   -2.5343 H   0  0  0  0  0  0  0  0  0  0  0  0
    5.7831    4.8736   -2.2276 H   0  0  0  0  0  0  0  0  0  0  0  0
    6.5415    3.5277   -4.1457 H   0  0  0  0  0  0  0  0  0  0  0  0
    6.1801    5.1943   -4.6311 H   0  0  0  0  0  0  0  0  0  0  0  0
    6.4794    1.6400   -5.4496 H   0  0  0  0  0  0  0  0  0  0  0  0
    5.9377   -0.7746   -5.3029 H   0  0  0  0  0  0  0  0  0  0  0  0
  1  2  1  0
  1 39  1  0
  1 40  1  0
  1 41  1  0
  2  3  1  0
  3  4  2  0
  3 38  1  0
  4  5  1  0
  4 42  1  0
  5  6  1  0
  5 36  2  0
  6  7  1  0
  6 35  1  0
  6 43  1  6
  7  8  1  0
  7 44  1  0
  7 45  1  0
  8  9  1  0
  8 46  1  0
  8 47  1  0
  9 10  1  0
  9 34  1  0
 10 11  1  1
 10 12  1  0
 10 33  1  0
 12 13  1  0
 12 48  1  0
 12 49  1  0
 13 14  1  0
 13 50  1  0
 13 51  1  0
 14 15  1  6
 14 29  1  0
 14 32  1  0
 15 16  2  0
 15 17  1  0
 17 18  1  0
 17 52  1  0
 18 19  1  0
 18 53  1  0
 18 54  1  0
 19 20  2  0
 19 28  1  0
 20 21  1  0
 20 55  1  0
 21 22  2  0
 21 56  1  0
 22 23  1  0
 22 57  1  0
 23 24  1  0
 23 28  2  0
 24 25  1  1
 24 26  1  0
 24 27  1  0
 28 58  1  0
 29 30  1  0
 29 31  1  0
 29 59  1  1
 30 60  1  0
 30 61  1  0
 30 62  1  0
 31 63  1  0
 31 64  1  0
 31 65  1  0
 32 33  1  0
 33 66  1  0
 33 67  1  0
 34 35  1  0
 34 68  1  0
 34 69  1  0
 35 70  1  0
 35 71  1  0
 36 37  1  0
 36 72  1  0
 37 38  2  0
 37 73  1  0
M  END

