
     RDKit          3D

 41 41  0  0  0  0  0  0  0  0999 V2000
    5.4722   -1.4686   -2.9976 C   0  0  0  0  0  0  0  0  0  0  0  0
    4.4720   -0.5241   -3.3146 O   0  0  0  0  0  0  0  0  0  0  0  0
    3.5611   -0.2410   -2.2860 C   0  0  0  0  0  0  0  0  0  0  0  0
    4.1209    0.6401   -1.1556 C   0  0  0  0  0  0  0  0  0  0  0  0
    4.6791    1.8999   -1.6339 N   0  0  0  0  0  0  0  0  0  0  0  0
    3.7588    2.9647   -2.0165 C   0  0  0  0  0  0  0  0  0  0  0  0
    2.9106    3.5479   -0.8657 C   0  0  1  0  0  0  0  0  0  0  0  0
    3.7779    4.1010    0.2691 C   0  0  0  0  0  0  0  0  0  0  0  0
    1.9645    4.6173   -1.4260 C   0  0  0  0  0  0  0  0  0  0  0  0
    6.0455    1.9687   -1.7992 C   0  0  0  0  0  0  0  0  0  0  0  0
    6.7995    1.0985   -1.3791 O   0  0  0  0  0  0  0  0  0  0  0  0
    6.6112    3.1459   -2.5668 C   0  0  0  0  0  0  0  0  0  0  0  0
    6.4400    3.1326   -4.0664 C   0  0  0  0  0  0  0  0  0  0  0  0
    7.3682    4.0381   -1.9217 C   0  0  0  0  0  0  0  0  0  0  0  0
    7.7816    4.2551   -0.4785 C   0  0  0  0  0  0  0  0  0  0  0  0
    8.2911    5.5933   -0.8650 N   0  0  0  0  0  0  0  0  0  0  0  0
    8.1576    5.2775   -2.3067 C   0  0  0  0  0  0  0  0  0  0  0  0
    6.0009   -1.7070   -3.9325 H   0  0  0  0  0  0  0  0  0  0  0  0
    5.0319   -2.4049   -2.5982 H   0  0  0  0  0  0  0  0  0  0  0  0
    6.2048   -1.0729   -2.2722 H   0  0  0  0  0  0  0  0  0  0  0  0
    3.1671   -1.1746   -1.8297 H   0  0  0  0  0  0  0  0  0  0  0  0
    2.7079    0.2646   -2.7689 H   0  0  0  0  0  0  0  0  0  0  0  0
    4.9220    0.1164   -0.6187 H   0  0  0  0  0  0  0  0  0  0  0  0
    3.3114    0.8340   -0.4329 H   0  0  0  0  0  0  0  0  0  0  0  0
    3.0807    2.6046   -2.8126 H   0  0  0  0  0  0  0  0  0  0  0  0
    4.3500    3.7828   -2.4494 H   0  0  0  0  0  0  0  0  0  0  0  0
    2.2816    2.7381   -0.4526 H   0  0  0  0  0  0  0  0  0  0  0  0
    4.4133    4.9297   -0.0872 H   0  0  0  0  0  0  0  0  0  0  0  0
    4.4406    3.3275    0.6867 H   0  0  0  0  0  0  0  0  0  0  0  0
    3.1531    4.4879    1.0900 H   0  0  0  0  0  0  0  0  0  0  0  0
    2.5302    5.4654   -1.8488 H   0  0  0  0  0  0  0  0  0  0  0  0
    1.3077    5.0180   -0.6378 H   0  0  0  0  0  0  0  0  0  0  0  0
    1.3204    4.2143   -2.2249 H   0  0  0  0  0  0  0  0  0  0  0  0
    6.9475    2.2519   -4.4967 H   0  0  0  0  0  0  0  0  0  0  0  0
    6.8703    4.0334   -4.5293 H   0  0  0  0  0  0  0  0  0  0  0  0
    5.3829    3.0586   -4.3693 H   0  0  0  0  0  0  0  0  0  0  0  0
    8.5504    3.5263   -0.1540 H   0  0  0  0  0  0  0  0  0  0  0  0
    6.9820    4.2651    0.2840 H   0  0  0  0  0  0  0  0  0  0  0  0
    9.2368    5.8051   -0.5534 H   0  0  0  0  0  0  0  0  0  0  0  0
    9.1073    5.0371   -2.8278 H   0  0  0  0  0  0  0  0  0  0  0  0
    7.6329    6.0481   -2.9019 H   0  0  0  0  0  0  0  0  0  0  0  0
  1  2  1  0
  1 18  1  0
  1 19  1  0
  1 20  1  0
  2  3  1  0
  3  4  1  0
  3 21  1  0
  3 22  1  0
  4  5  1  0
  4 23  1  0
  4 24  1  0
  5  6  1  0
  5 10  1  0
  6  7  1  0
  6 25  1  0
  6 26  1  0
  7  8  1  0
  7  9  1  0
  7 27  1  1
  8 28  1  0
  8 29  1  0
  8 30  1  0
  9 31  1  0
  9 32  1  0
  9 33  1  0
 10 11  2  0
 10 12  1  0
 12 13  1  0
 12 14  2  0
 13 34  1  0
 13 35  1  0
 13 36  1  0
 14 15  1  0
 14 17  1  0
 15 16  1  0
 15 37  1  0
 15 38  1  0
 16 17  1  0
 16 39  1  0
 17 40  1  0
 17 41  1  0
M  END

