
     RDKit          3D

 68 72  0  0  0  0  0  0  0  0999 V2000
    1.2279    1.4425    0.5326 C   0  0  0  0  0  0  0  0  0  0  0  0
    2.0437    0.1778    0.2128 C   0  0  1  0  0  0  0  0  0  0  0  0
    3.4182    0.5173   -0.3965 C   0  0  0  0  0  0  0  0  0  0  0  0
    2.1843   -0.7305    1.4148 C   0  0  0  0  0  0  0  0  0  0  0  0
    2.7328   -0.5192    2.6846 C   0  0  0  0  0  0  0  0  0  0  0  0
    3.3012    0.7300    3.2599 C   0  0  0  0  0  0  0  0  0  0  0  0
    3.7394    1.6540    2.5792 O   0  0  0  0  0  0  0  0  0  0  0  0
    3.2849    0.7802    4.6273 N   0  0  0  0  0  0  0  0  0  0  0  0
    3.8949    1.8488    5.3871 C   0  0  0  0  0  0  0  0  0  0  0  0
    5.2045    1.4419    6.1183 C   0  0  1  0  0  0  0  0  0  0  0  0
    6.1921    1.0109    5.1061 N   0  0  0  0  0  0  0  0  0  0  0  0
    7.1698   -0.0335    5.3879 C   0  0  0  0  0  0  0  0  0  0  0  0
    7.6850   -0.6670    4.0893 C   0  0  0  0  0  0  0  0  0  0  0  0
    8.2829    0.3903    3.1580 C   0  0  0  0  0  0  0  0  0  0  0  0
    7.2840    1.5306    2.9462 C   0  0  0  0  0  0  0  0  0  0  0  0
    6.7692    2.0713    4.2841 C   0  0  0  0  0  0  0  0  0  0  0  0
    5.6964    2.5990    7.0365 C   0  0  0  0  0  0  0  0  0  0  0  0
    6.5845    1.9207    8.0920 C   0  0  0  0  0  0  0  0  0  0  0  0
    5.9514    0.5218    8.3165 C   0  0  0  0  0  0  0  0  0  0  0  0
    4.9117    0.3489    7.1802 C   0  0  0  0  0  0  0  0  0  0  0  0
    2.6593   -1.7902    3.3271 C   0  0  0  0  0  0  0  0  0  0  0  0
    2.1281   -2.7109    2.5538 N   0  0  0  0  0  0  0  0  0  0  0  0
    1.8277   -2.0641    1.4004 N   0  0  0  0  0  0  0  0  0  0  0  0
    1.1674   -2.8207    0.3893 C   0  0  0  0  0  0  0  0  0  0  0  0
    1.6306   -4.0514    0.1851 N   0  0  0  0  0  0  0  0  0  0  0  0
    0.9750   -4.7739   -0.7246 C   0  0  0  0  0  0  0  0  0  0  0  0
   -0.1109   -4.2795   -1.4434 C   0  0  0  0  0  0  0  0  0  0  0  0
   -0.4980   -2.9578   -1.1610 C   0  0  0  0  0  0  0  0  0  0  0  0
   -1.6056   -2.3071   -1.8427 C   0  0  0  0  0  0  0  0  0  0  0  0
   -2.1625   -1.0556   -1.7179 C   0  0  0  0  0  0  0  0  0  0  0  0
   -3.2319   -0.9980   -2.6613 C   0  0  0  0  0  0  0  0  0  0  0  0
   -3.2481   -2.2153   -3.2886 C   0  0  0  0  0  0  0  0  0  0  0  0
   -2.2713   -3.0130   -2.8022 O   0  0  0  0  0  0  0  0  0  0  0  0
    0.1452   -2.2382   -0.2247 N   0  0  0  0  0  0  0  0  0  0  0  0
    1.0781    2.0317   -0.3867 H   0  0  0  0  0  0  0  0  0  0  0  0
    1.7522    2.0770    1.2608 H   0  0  0  0  0  0  0  0  0  0  0  0
    0.2361    1.1823    0.9353 H   0  0  0  0  0  0  0  0  0  0  0  0
    1.4737   -0.3845   -0.5371 H   0  0  0  0  0  0  0  0  0  0  0  0
    4.0196    1.0991    0.3151 H   0  0  0  0  0  0  0  0  0  0  0  0
    3.2825    1.1108   -1.3156 H   0  0  0  0  0  0  0  0  0  0  0  0
    3.9721   -0.3969   -0.6642 H   0  0  0  0  0  0  0  0  0  0  0  0
    2.8510    0.0180    5.1310 H   0  0  0  0  0  0  0  0  0  0  0  0
    3.1755    2.2219    6.1361 H   0  0  0  0  0  0  0  0  0  0  0  0
    4.0802    2.6673    4.6801 H   0  0  0  0  0  0  0  0  0  0  0  0
    6.7168   -0.8191    6.0041 H   0  0  0  0  0  0  0  0  0  0  0  0
    8.0479    0.3549    5.9581 H   0  0  0  0  0  0  0  0  0  0  0  0
    6.8407   -1.1699    3.5867 H   0  0  0  0  0  0  0  0  0  0  0  0
    8.4311   -1.4427    4.3338 H   0  0  0  0  0  0  0  0  0  0  0  0
    8.5780   -0.0580    2.1943 H   0  0  0  0  0  0  0  0  0  0  0  0
    9.2081    0.7918    3.6131 H   0  0  0  0  0  0  0  0  0  0  0  0
    6.4183    1.1783    2.3626 H   0  0  0  0  0  0  0  0  0  0  0  0
    7.7470    2.3544    2.3766 H   0  0  0  0  0  0  0  0  0  0  0  0
    6.0087    2.8378    4.0836 H   0  0  0  0  0  0  0  0  0  0  0  0
    7.6101    2.5809    4.8121 H   0  0  0  0  0  0  0  0  0  0  0  0
    4.8210    3.0631    7.5242 H   0  0  0  0  0  0  0  0  0  0  0  0
    6.2102    3.3987    6.4837 H   0  0  0  0  0  0  0  0  0  0  0  0
    6.6516    2.5086    9.0208 H   0  0  0  0  0  0  0  0  0  0  0  0
    7.6123    1.8191    7.7101 H   0  0  0  0  0  0  0  0  0  0  0  0
    5.4618    0.4526    9.3005 H   0  0  0  0  0  0  0  0  0  0  0  0
    6.7170   -0.2686    8.2964 H   0  0  0  0  0  0  0  0  0  0  0  0
    3.9044    0.5472    7.5818 H   0  0  0  0  0  0  0  0  0  0  0  0
    4.8815   -0.6659    6.7576 H   0  0  0  0  0  0  0  0  0  0  0  0
    3.0030   -2.0654    4.3253 H   0  0  0  0  0  0  0  0  0  0  0  0
    1.3404   -5.7930   -0.8963 H   0  0  0  0  0  0  0  0  0  0  0  0
   -0.6337   -4.8782   -2.1888 H   0  0  0  0  0  0  0  0  0  0  0  0
   -1.8320   -0.2856   -1.0259 H   0  0  0  0  0  0  0  0  0  0  0  0
   -3.9034   -0.1635   -2.8509 H   0  0  0  0  0  0  0  0  0  0  0  0
   -3.8712   -2.6425   -4.0703 H   0  0  0  0  0  0  0  0  0  0  0  0
  1  2  1  0
  1 35  1  0
  1 36  1  0
  1 37  1  0
  2  3  1  0
  2  4  1  0
  2 38  1  6
  3 39  1  0
  3 40  1  0
  3 41  1  0
  4  5  2  0
  4 23  1  0
  5  6  1  0
  5 21  1  0
  6  7  2  0
  6  8  1  0
  8  9  1  0
  8 42  1  0
 10  9  1  6
  9 43  1  0
  9 44  1  0
 10 11  1  0
 10 17  1  0
 10 20  1  0
 11 12  1  0
 11 16  1  0
 12 13  1  0
 12 45  1  0
 12 46  1  0
 13 14  1  0
 13 47  1  0
 13 48  1  0
 14 15  1  0
 14 49  1  0
 14 50  1  0
 15 16  1  0
 15 51  1  0
 15 52  1  0
 16 53  1  0
 16 54  1  0
 17 18  1  0
 17 55  1  0
 17 56  1  0
 18 19  1  0
 18 57  1  0
 18 58  1  0
 19 20  1  0
 19 59  1  0
 19 60  1  0
 20 61  1  0
 20 62  1  0
 21 22  2  0
 21 63  1  0
 22 23  1  0
 23 24  1  0
 24 25  2  0
 24 34  1  0
 25 26  1  0
 26 27  2  0
 26 64  1  0
 27 28  1  0
 27 65  1  0
 28 29  1  0
 28 34  2  0
 29 30  2  0
 29 33  1  0
 30 31  1  0
 30 66  1  0
 31 32  2  0
 31 67  1  0
 32 33  1  0
 32 68  1  0
M  END

