
     RDKit          3D

 40 42  0  0  0  0  0  0  0  0999 V2000
    2.0476    1.0909   -0.2627 C   0  0  0  0  0  0  0  0  0  0  0  0
    2.5058   -0.3007    0.1954 C   0  0  1  0  0  0  0  0  0  0  0  0
    1.5431   -0.9478    1.2007 C   0  0  0  0  0  0  0  0  0  0  0  0
    2.9095   -1.1686   -0.9494 N   0  0  0  0  0  0  0  0  0  0  0  0
    2.0845   -1.7725   -1.8755 C   0  0  0  0  0  0  0  0  0  0  0  0
    2.5188   -2.3575   -2.8544 O   0  0  0  0  0  0  0  0  0  0  0  0
    0.5799   -1.7376   -1.6325 C   0  0  0  0  0  0  0  0  0  0  0  0
   -0.2313   -2.3464   -3.1588 S   0  0  0  0  0  0  0  0  0  0  0  0
   -1.8704   -2.0331   -2.6179 C   0  0  0  0  0  0  0  0  0  0  0  0
   -2.2874   -1.5123   -1.4919 N   0  0  0  0  0  0  0  0  0  0  0  0
   -3.6813   -1.4557   -1.5022 N   0  0  0  0  0  0  0  0  0  0  0  0
   -4.0576   -1.9475   -2.6403 C   0  0  0  0  0  0  0  0  0  0  0  0
   -5.3057   -2.1349   -3.1835 N   0  0  0  0  0  0  0  0  0  0  0  0
   -6.1283   -1.8604   -2.6513 H   0  0  0  0  0  0  0  0  0  0  0  0
   -5.4852   -2.6912   -4.4460 C   0  0  0  0  0  0  0  0  0  0  0  0
   -6.5748   -2.8662   -4.9462 O   0  0  0  0  0  0  0  0  0  0  0  0
   -4.2008   -3.0519   -5.1248 C   0  0  0  0  0  0  0  0  0  0  0  0
   -3.0194   -2.8861   -4.6376 N   0  0  0  0  0  0  0  0  0  0  0  0
   -2.9730   -2.3385   -3.4076 N   0  0  0  0  0  0  0  0  0  0  0  0
    4.3262   -1.2398   -1.2060 C   0  0  0  0  0  0  0  0  0  0  0  0
    4.8883   -0.5957   -2.3159 C   0  0  0  0  0  0  0  0  0  0  0  0
    6.2673   -0.6466   -2.5299 C   0  0  0  0  0  0  0  0  0  0  0  0
    7.0957   -1.3347   -1.6377 C   0  0  0  0  0  0  0  0  0  0  0  0
    6.5364   -1.9805   -0.5316 C   0  0  0  0  0  0  0  0  0  0  0  0
    5.1556   -1.9393   -0.3199 C   0  0  0  0  0  0  0  0  0  0  0  0
    1.9044    1.7474    0.6103 H   0  0  0  0  0  0  0  0  0  0  0  0
    1.0929    1.0582   -0.8097 H   0  0  0  0  0  0  0  0  0  0  0  0
    2.8021    1.5548   -0.9161 H   0  0  0  0  0  0  0  0  0  0  0  0
    3.4518   -0.1562    0.7355 H   0  0  0  0  0  0  0  0  0  0  0  0
    0.4982   -0.9623    0.8609 H   0  0  0  0  0  0  0  0  0  0  0  0
    1.5658   -0.3682    2.1370 H   0  0  0  0  0  0  0  0  0  0  0  0
    1.8499   -1.9784    1.4366 H   0  0  0  0  0  0  0  0  0  0  0  0
    0.1914   -0.7407   -1.3939 H   0  0  0  0  0  0  0  0  0  0  0  0
    0.3042   -2.3981   -0.7986 H   0  0  0  0  0  0  0  0  0  0  0  0
   -4.2857   -3.4932   -6.1213 H   0  0  0  0  0  0  0  0  0  0  0  0
    4.2394   -0.0674   -3.0162 H   0  0  0  0  0  0  0  0  0  0  0  0
    6.6971   -0.1443   -3.4002 H   0  0  0  0  0  0  0  0  0  0  0  0
    8.1747   -1.3712   -1.8072 H   0  0  0  0  0  0  0  0  0  0  0  0
    7.1749   -2.5286    0.1658 H   0  0  0  0  0  0  0  0  0  0  0  0
    4.7127   -2.4583    0.5336 H   0  0  0  0  0  0  0  0  0  0  0  0
  1  2  1  0
  1 26  1  0
  1 27  1  0
  1 28  1  0
  2  3  1  0
  2  4  1  0
  2 29  1  1
  3 30  1  0
  3 31  1  0
  3 32  1  0
  4  5  1  0
  4 20  1  0
  5  6  2  0
  5  7  1  0
  7  8  1  0
  7 33  1  0
  7 34  1  0
  8  9  1  0
  9 10  2  0
  9 19  1  0
 10 11  1  0
 11 12  2  0
 12 13  1  0
 12 19  1  0
 13 14  1  0
 13 15  1  0
 15 16  2  0
 15 17  1  0
 17 18  2  0
 17 35  1  0
 18 19  1  0
 20 21  2  0
 20 25  1  0
 21 22  1  0
 21 36  1  0
 22 23  2  0
 22 37  1  0
 23 24  1  0
 23 38  1  0
 24 25  2  0
 24 39  1  0
 25 40  1  0
M  END

