
     RDKit          3D

 93103  0  0  0  0  0  0  0  0999 V2000
    5.5596   -1.5690   -1.8467 C   0  0  0  0  0  0  0  0  0  0  0  0
    4.8356   -0.8878   -0.7067 C   0  0  0  0  0  0  0  0  0  0  0  0
    5.3655    0.2993   -0.1875 C   0  0  0  0  0  0  0  0  0  0  0  0
    4.7415    1.0136    0.8471 C   0  0  0  0  0  0  0  0  0  0  0  0
    5.3404    2.2654    1.3696 C   0  0  0  0  0  0  0  0  0  0  0  0
    6.4919    2.6930    0.8323 N   0  0  0  0  0  0  0  0  0  0  0  0
    6.9971    3.8268    1.3322 C   0  0  0  0  0  0  0  0  0  0  0  0
    8.2727    4.3374    0.7632 C   0  0  0  0  0  0  0  0  0  0  0  0
    8.9212    3.6392   -0.2706 C   0  0  0  0  0  0  0  0  0  0  0  0
   10.1176    4.1193   -0.8038 C   0  0  0  0  0  0  0  0  0  0  0  0
   10.6817    5.3017   -0.3124 C   0  0  0  0  0  0  0  0  0  0  0  0
   10.0425    6.0024    0.7162 C   0  0  0  0  0  0  0  0  0  0  0  0
    8.8460    5.5246    1.2514 C   0  0  0  0  0  0  0  0  0  0  0  0
    6.4195    4.5283    2.3163 N   0  0  0  0  0  0  0  0  0  0  0  0
    5.2721    4.0350    2.8007 C   0  0  0  0  0  0  0  0  0  0  0  0
    4.5956    4.7800    3.8953 C   0  0  0  0  0  0  0  0  0  0  0  0
    5.1531    5.9683    4.3990 C   0  0  0  0  0  0  0  0  0  0  0  0
    4.5171    6.6660    5.4262 C   0  0  0  0  0  0  0  0  0  0  0  0
    3.3174    6.1868    5.9633 C   0  0  0  0  0  0  0  0  0  0  0  0
    2.7560    5.0049    5.4675 C   0  0  0  0  0  0  0  0  0  0  0  0
    3.3897    4.3051    4.4404 C   0  0  0  0  0  0  0  0  0  0  0  0
    4.7005    2.9098    2.3557 N   0  0  0  0  0  0  0  0  0  0  0  0
    3.5343    0.5215    1.3682 C   0  0  0  0  0  0  0  0  0  0  0  0
    2.9916   -0.6544    0.8628 C   0  0  0  0  0  0  0  0  0  0  0  0
    3.6212   -1.3857   -0.1649 C   0  0  0  0  0  0  0  0  0  0  0  0
    2.9722   -2.6363   -0.6468 C   0  0  0  0  0  0  0  0  0  0  0  0
    3.6623   -3.8585   -0.7420 C   0  0  0  0  0  0  0  0  0  0  0  0
    3.0180   -5.0186   -1.1501 C   0  0  0  0  0  0  0  0  0  0  0  0
    1.6466   -5.0160   -1.4934 C   0  0  0  0  0  0  0  0  0  0  0  0
    0.9351   -3.8002   -1.4073 C   0  0  0  0  0  0  0  0  0  0  0  0
    1.6113   -2.6496   -0.9823 C   0  0  0  0  0  0  0  0  0  0  0  0
   -0.5483   -3.6910   -1.7811 C   0  0  2  0  0  0  0  0  0  0  0  0
   -0.7548   -2.6736   -2.9195 C   0  0  0  0  0  0  0  0  0  0  0  0
   -0.2628   -2.7207   -4.2207 C   0  0  0  0  0  0  0  0  0  0  0  0
   -0.5749   -1.6782   -5.1032 C   0  0  0  0  0  0  0  0  0  0  0  0
   -1.3707   -0.6034   -4.6834 C   0  0  0  0  0  0  0  0  0  0  0  0
   -1.8671   -0.5534   -3.3768 C   0  0  0  0  0  0  0  0  0  0  0  0
   -1.5560   -1.5944   -2.4947 C   0  0  0  0  0  0  0  0  0  0  0  0
   -1.9283   -1.8115   -1.0879 C   0  0  0  0  0  0  0  0  0  0  0  0
   -2.7032   -1.0409   -0.2134 C   0  0  0  0  0  0  0  0  0  0  0  0
   -2.8979   -1.4940    1.0953 C   0  0  0  0  0  0  0  0  0  0  0  0
   -2.3270   -2.7001    1.5249 C   0  0  0  0  0  0  0  0  0  0  0  0
   -1.5512   -3.4721    0.6501 C   0  0  0  0  0  0  0  0  0  0  0  0
   -1.3552   -3.0237   -0.6531 C   0  0  0  0  0  0  0  0  0  0  0  0
   -1.1397   -5.0558   -2.1537 C   0  0  0  0  0  0  0  0  0  0  0  0
   -2.5051   -5.1409   -2.4659 C   0  0  0  0  0  0  0  0  0  0  0  0
   -3.1104   -6.3403   -2.8314 C   0  0  0  0  0  0  0  0  0  0  0  0
   -2.3295   -7.4984   -2.8893 C   0  0  0  0  0  0  0  0  0  0  0  0
   -0.9735   -7.4456   -2.5842 C   0  0  0  0  0  0  0  0  0  0  0  0
   -0.3569   -6.2292   -2.2117 C   0  0  0  0  0  0  0  0  0  0  0  0
    1.0156   -6.1988   -1.9054 N   0  0  0  0  0  0  0  0  0  0  0  0
    1.7808   -7.4107   -1.9863 C   0  0  0  0  0  0  0  0  0  0  0  0
    2.4218   -7.7574   -3.1826 C   0  0  0  0  0  0  0  0  0  0  0  0
    3.1671   -8.9372   -3.2614 C   0  0  0  0  0  0  0  0  0  0  0  0
    3.2750   -9.7747   -2.1467 C   0  0  0  0  0  0  0  0  0  0  0  0
    2.6354   -9.4298   -0.9516 C   0  0  0  0  0  0  0  0  0  0  0  0
    1.8896   -8.2507   -0.8703 C   0  0  0  0  0  0  0  0  0  0  0  0
    6.1999   -0.8509   -2.3801 H   0  0  0  0  0  0  0  0  0  0  0  0
    4.8599   -2.0125   -2.5702 H   0  0  0  0  0  0  0  0  0  0  0  0
    6.2143   -2.3836   -1.4932 H   0  0  0  0  0  0  0  0  0  0  0  0
    6.2907    0.7018   -0.6027 H   0  0  0  0  0  0  0  0  0  0  0  0
    8.4709    2.7192   -0.6441 H   0  0  0  0  0  0  0  0  0  0  0  0
   10.6139    3.5690   -1.6072 H   0  0  0  0  0  0  0  0  0  0  0  0
   11.6192    5.6770   -0.7310 H   0  0  0  0  0  0  0  0  0  0  0  0
   10.4799    6.9264    1.1029 H   0  0  0  0  0  0  0  0  0  0  0  0
    8.3378    6.0609    2.0531 H   0  0  0  0  0  0  0  0  0  0  0  0
    6.0883    6.3307    3.9716 H   0  0  0  0  0  0  0  0  0  0  0  0
    4.9588    7.5889    5.8107 H   0  0  0  0  0  0  0  0  0  0  0  0
    2.8199    6.7343    6.7682 H   0  0  0  0  0  0  0  0  0  0  0  0
    1.8189    4.6273    5.8844 H   0  0  0  0  0  0  0  0  0  0  0  0
    2.9632    3.3830    4.0448 H   0  0  0  0  0  0  0  0  0  0  0  0
    3.0373    1.0676    2.1700 H   0  0  0  0  0  0  0  0  0  0  0  0
    2.0599   -1.0388    1.2846 H   0  0  0  0  0  0  0  0  0  0  0  0
    4.7165   -3.9140   -0.4646 H   0  0  0  0  0  0  0  0  0  0  0  0
    3.5827   -5.9485   -1.1971 H   0  0  0  0  0  0  0  0  0  0  0  0
    1.0500   -1.7144   -0.9283 H   0  0  0  0  0  0  0  0  0  0  0  0
    0.3576   -3.5578   -4.5513 H   0  0  0  0  0  0  0  0  0  0  0  0
   -0.1947   -1.7027   -6.1276 H   0  0  0  0  0  0  0  0  0  0  0  0
   -1.6049    0.2027   -5.3834 H   0  0  0  0  0  0  0  0  0  0  0  0
   -2.4870    0.2871   -3.0540 H   0  0  0  0  0  0  0  0  0  0  0  0
   -3.1501   -0.0995   -0.5436 H   0  0  0  0  0  0  0  0  0  0  0  0
   -3.5006   -0.9028    1.7895 H   0  0  0  0  0  0  0  0  0  0  0  0
   -2.4890   -3.0410    2.5507 H   0  0  0  0  0  0  0  0  0  0  0  0
   -1.1077   -4.4125    0.9874 H   0  0  0  0  0  0  0  0  0  0  0  0
   -3.1055   -4.2295   -2.4199 H   0  0  0  0  0  0  0  0  0  0  0  0
   -4.1760   -6.3707   -3.0687 H   0  0  0  0  0  0  0  0  0  0  0  0
   -2.7762   -8.4547   -3.1736 H   0  0  0  0  0  0  0  0  0  0  0  0
   -0.3794   -8.3569   -2.6331 H   0  0  0  0  0  0  0  0  0  0  0  0
    2.3300   -7.0958   -4.0467 H   0  0  0  0  0  0  0  0  0  0  0  0
    3.6650   -9.2028   -4.1973 H   0  0  0  0  0  0  0  0  0  0  0  0
    3.8579  -10.6970   -2.2092 H   0  0  0  0  0  0  0  0  0  0  0  0
    2.7171  -10.0814   -0.0780 H   0  0  0  0  0  0  0  0  0  0  0  0
    1.3858   -7.9714    0.0577 H   0  0  0  0  0  0  0  0  0  0  0  0
  1  2  1  0
  1 58  1  0
  1 59  1  0
  1 60  1  0
  2  3  2  0
  2 25  1  0
  3  4  1  0
  3 61  1  0
  4  5  1  0
  4 23  2  0
  5  6  2  0
  5 22  1  0
  6  7  1  0
  7  8  1  0
  7 14  2  0
  8  9  2  0
  8 13  1  0
  9 10  1  0
  9 62  1  0
 10 11  2  0
 10 63  1  0
 11 12  1  0
 11 64  1  0
 12 13  2  0
 12 65  1  0
 13 66  1  0
 14 15  1  0
 15 16  1  0
 15 22  2  0
 16 17  2  0
 16 21  1  0
 17 18  1  0
 17 67  1  0
 18 19  2  0
 18 68  1  0
 19 20  1  0
 19 69  1  0
 20 21  2  0
 20 70  1  0
 21 71  1  0
 23 24  1  0
 23 72  1  0
 24 25  2  0
 24 73  1  0
 25 26  1  0
 26 27  2  0
 26 31  1  0
 27 28  1  0
 27 74  1  0
 28 29  2  0
 28 75  1  0
 29 30  1  0
 29 51  1  0
 30 31  2  0
 32 30  1  1
 31 76  1  0
 32 33  1  0
 32 44  1  0
 32 45  1  0
 33 34  2  0
 33 38  1  0
 34 35  1  0
 34 77  1  0
 35 36  2  0
 35 78  1  0
 36 37  1  0
 36 79  1  0
 37 38  2  0
 37 80  1  0
 38 39  1  0
 39 40  2  0
 39 44  1  0
 40 41  1  0
 40 81  1  0
 41 42  2  0
 41 82  1  0
 42 43  1  0
 42 83  1  0
 43 44  2  0
 43 84  1  0
 45 46  1  0
 45 50  2  0
 46 47  2  0
 46 85  1  0
 47 48  1  0
 47 86  1  0
 48 49  2  0
 48 87  1  0
 49 50  1  0
 49 88  1  0
 50 51  1  0
 51 52  1  0
 52 53  2  0
 52 57  1  0
 53 54  1  0
 53 89  1  0
 54 55  2  0
 54 90  1  0
 55 56  1  0
 55 91  1  0
 56 57  2  0
 56 92  1  0
 57 93  1  0
M  END

