
     RDKit          3D

 38 39  0  0  0  0  0  0  0  0999 V2000
    1.3447   -0.2016    1.2242 C   0  0  0  0  0  0  0  0  0  0  0  0
    2.6917    0.0080    0.5857 C   0  0  0  0  0  0  0  0  0  0  0  0
    3.3279    1.2445    0.6086 C   0  0  0  0  0  0  0  0  0  0  0  0
    4.5963    1.3385   -0.0204 C   0  0  0  0  0  0  0  0  0  0  0  0
    5.3225    2.5062   -0.0881 N   0  0  0  0  0  0  0  0  0  0  0  0
    6.6857    2.5150   -0.6036 C   0  0  0  0  0  0  0  0  0  0  0  0
    6.8751    3.7095   -1.5445 C   0  0  2  0  0  0  0  0  0  0  0  0
    8.3289    3.8523   -1.9615 C   0  0  0  0  0  0  0  0  0  0  0  0
    8.5512    5.0879   -3.2555 Cl  0  0  0  0  0  0  0  0  0  0  0  0
    6.4908    4.9123   -0.9036 O   0  0  0  0  0  0  0  0  0  0  0  0
    5.1506    4.9568   -0.3944 C   0  0  2  0  0  0  0  0  0  0  0  0
    4.1277    4.9514   -1.5404 C   0  0  0  0  0  0  0  0  0  0  0  0
    5.0737    6.2623    0.3943 C   0  0  0  0  0  0  0  0  0  0  0  0
    4.9383    3.7517    0.5529 C   0  0  0  0  0  0  0  0  0  0  0  0
    5.1332    0.2504   -0.5934 N   0  0  0  0  0  0  0  0  0  0  0  0
    4.4431   -0.8945   -0.5638 C   0  0  0  0  0  0  0  0  0  0  0  0
    5.0854   -2.0865   -1.2244 C   0  0  0  0  0  0  0  0  0  0  0  0
    3.2458   -1.0690   -0.0037 N   0  0  0  0  0  0  0  0  0  0  0  0
    0.9470    0.7176    1.6772 H   0  0  0  0  0  0  0  0  0  0  0  0
    1.4160   -0.9819    1.9989 H   0  0  0  0  0  0  0  0  0  0  0  0
    0.6290   -0.5710    0.4723 H   0  0  0  0  0  0  0  0  0  0  0  0
    2.8507    2.0891    1.1021 H   0  0  0  0  0  0  0  0  0  0  0  0
    6.8628    1.5640   -1.1185 H   0  0  0  0  0  0  0  0  0  0  0  0
    7.4026    2.5989    0.2386 H   0  0  0  0  0  0  0  0  0  0  0  0
    6.2671    3.5418   -2.4536 H   0  0  0  0  0  0  0  0  0  0  0  0
    8.7103    2.8998   -2.3538 H   0  0  0  0  0  0  0  0  0  0  0  0
    8.9405    4.1666   -1.1046 H   0  0  0  0  0  0  0  0  0  0  0  0
    4.4011    5.7163   -2.2828 H   0  0  0  0  0  0  0  0  0  0  0  0
    3.1200    5.1790   -1.1595 H   0  0  0  0  0  0  0  0  0  0  0  0
    4.0780    3.9769   -2.0477 H   0  0  0  0  0  0  0  0  0  0  0  0
    5.2376    7.1166   -0.2791 H   0  0  0  0  0  0  0  0  0  0  0  0
    5.8540    6.2860    1.1697 H   0  0  0  0  0  0  0  0  0  0  0  0
    4.0899    6.3783    0.8750 H   0  0  0  0  0  0  0  0  0  0  0  0
    3.8874    3.7198    0.8604 H   0  0  0  0  0  0  0  0  0  0  0  0
    5.5499    3.9085    1.4633 H   0  0  0  0  0  0  0  0  0  0  0  0
    6.0657   -2.2936   -0.7661 H   0  0  0  0  0  0  0  0  0  0  0  0
    5.2687   -1.8785   -2.2909 H   0  0  0  0  0  0  0  0  0  0  0  0
    4.4396   -2.9680   -1.1282 H   0  0  0  0  0  0  0  0  0  0  0  0
  1  2  1  0
  1 19  1  0
  1 20  1  0
  1 21  1  0
  2  3  2  0
  2 18  1  0
  3  4  1  0
  3 22  1  0
  4  5  1  0
  4 15  2  0
  5  6  1  0
  5 14  1  0
  6  7  1  0
  6 23  1  0
  6 24  1  0
  7  8  1  0
  7 10  1  0
  7 25  1  6
  8  9  1  0
  8 26  1  0
  8 27  1  0
 10 11  1  0
 11 12  1  6
 11 13  1  0
 11 14  1  0
 12 28  1  0
 12 29  1  0
 12 30  1  0
 13 31  1  0
 13 32  1  0
 13 33  1  0
 14 34  1  0
 14 35  1  0
 15 16  1  0
 16 17  1  0
 16 18  2  0
 17 36  1  0
 17 37  1  0
 17 38  1  0
M  END

