
     RDKit          3D

 46 49  0  0  0  0  0  0  0  0999 V2000
    4.7069   -2.4631    1.3676 O   0  0  0  0  0  0  0  0  0  0  0  0
    3.7902   -2.5745    0.3097 C   0  0  1  0  0  0  0  0  0  0  0  0
    2.7524   -1.4302    0.4350 C   0  0  0  0  0  0  0  0  0  0  0  0
    2.2710   -1.3390    1.8143 N   0  0  0  0  0  0  0  0  0  0  0  0
    1.9502    0.0035    2.3038 C   0  0  0  0  0  0  0  0  0  0  0  0
    0.5854    0.5133    1.8338 C   0  0  0  0  0  0  0  0  0  0  0  0
   -0.4654   -0.4496    2.1694 N   0  0  0  0  0  0  0  0  0  0  0  0
   -1.6927   -0.0065    2.6149 C   0  0  0  0  0  0  0  0  0  0  0  0
   -2.8098   -0.9116    2.7710 C   0  0  0  0  0  0  0  0  0  0  0  0
   -3.9982   -0.4282    3.2467 C   0  0  0  0  0  0  0  0  0  0  0  0
   -4.1233    0.9521    3.5748 C   0  0  0  0  0  0  0  0  0  0  0  0
   -5.2878    1.4501    4.0472 N   0  0  0  0  0  0  0  0  0  0  0  0
   -5.3092    2.7404    4.3155 C   0  0  0  0  0  0  0  0  0  0  0  0
   -4.1685    3.5635    4.1164 C   0  0  0  0  0  0  0  0  0  0  0  0
   -3.0241    3.1044    3.6573 N   0  0  0  0  0  0  0  0  0  0  0  0
   -2.9668    1.7760    3.3722 C   0  0  0  0  0  0  0  0  0  0  0  0
   -1.8044    1.2829    2.9020 N   0  0  0  0  0  0  0  0  0  0  0  0
   -0.1970   -1.8054    1.7101 C   0  0  0  0  0  0  0  0  0  0  0  0
    1.1990   -2.2676    2.1664 C   0  0  0  0  0  0  0  0  0  0  0  0
    4.4954   -2.5254   -1.0319 C   0  0  0  0  0  0  0  0  0  0  0  0
    3.8739   -3.0399   -2.1799 C   0  0  0  0  0  0  0  0  0  0  0  0
    4.4960   -2.9522   -3.4280 C   0  0  0  0  0  0  0  0  0  0  0  0
    5.7555   -2.3550   -3.5420 C   0  0  0  0  0  0  0  0  0  0  0  0
    6.3856   -1.8499   -2.4007 C   0  0  0  0  0  0  0  0  0  0  0  0
    5.7599   -1.9329   -1.1533 C   0  0  0  0  0  0  0  0  0  0  0  0
    4.1747   -2.0963    2.0993 H   0  0  0  0  0  0  0  0  0  0  0  0
    3.2474   -3.5438    0.3675 H   0  0  0  0  0  0  0  0  0  0  0  0
    1.9514   -1.5645   -0.3183 H   0  0  0  0  0  0  0  0  0  0  0  0
    3.2660   -0.4874    0.1911 H   0  0  0  0  0  0  0  0  0  0  0  0
    2.7394    0.7028    1.9878 H   0  0  0  0  0  0  0  0  0  0  0  0
    1.9573   -0.0234    3.4078 H   0  0  0  0  0  0  0  0  0  0  0  0
    0.5982    0.6777    0.7372 H   0  0  0  0  0  0  0  0  0  0  0  0
    0.3324    1.4689    2.3072 H   0  0  0  0  0  0  0  0  0  0  0  0
   -2.7274   -1.9652    2.5097 H   0  0  0  0  0  0  0  0  0  0  0  0
   -4.8697   -1.0735    3.3794 H   0  0  0  0  0  0  0  0  0  0  0  0
   -6.2408    3.1710    4.7009 H   0  0  0  0  0  0  0  0  0  0  0  0
   -4.2265    4.6345    4.3509 H   0  0  0  0  0  0  0  0  0  0  0  0
   -0.2743   -1.8573    0.6047 H   0  0  0  0  0  0  0  0  0  0  0  0
   -0.9357   -2.5061    2.1159 H   0  0  0  0  0  0  0  0  0  0  0  0
    1.4120   -3.2601    1.7402 H   0  0  0  0  0  0  0  0  0  0  0  0
    1.1851   -2.3810    3.2646 H   0  0  0  0  0  0  0  0  0  0  0  0
    2.8959   -3.5246   -2.0963 H   0  0  0  0  0  0  0  0  0  0  0  0
    3.9999   -3.3591   -4.3131 H   0  0  0  0  0  0  0  0  0  0  0  0
    6.2469   -2.2913   -4.5163 H   0  0  0  0  0  0  0  0  0  0  0  0
    7.3749   -1.3911   -2.4808 H   0  0  0  0  0  0  0  0  0  0  0  0
    6.2478   -1.5551   -0.2534 H   0  0  0  0  0  0  0  0  0  0  0  0
  1  2  1  0
  1 26  1  0
  2  3  1  0
  2 20  1  0
  2 27  1  1
  3  4  1  0
  3 28  1  0
  3 29  1  0
  4  5  1  0
  4 19  1  0
  5  6  1  0
  5 30  1  0
  5 31  1  0
  6  7  1  0
  6 32  1  0
  6 33  1  0
  7  8  1  0
  7 18  1  0
  8  9  2  0
  8 17  1  0
  9 10  1  0
  9 34  1  0
 10 11  2  0
 10 35  1  0
 11 12  1  0
 11 16  1  0
 12 13  2  0
 13 14  1  0
 13 36  1  0
 14 15  2  0
 14 37  1  0
 15 16  1  0
 16 17  2  0
 18 19  1  0
 18 38  1  0
 18 39  1  0
 19 40  1  0
 19 41  1  0
 20 21  2  0
 20 25  1  0
 21 22  1  0
 21 42  1  0
 22 23  2  0
 22 43  1  0
 23 24  1  0
 23 44  1  0
 24 25  2  0
 24 45  1  0
 25 46  1  0
M  END

