
     RDKit          3D

 47 47  0  0  0  0  0  0  0  0999 V2000
    8.5662    5.5385    2.6384 C   0  0  0  0  0  0  0  0  0  0  0  0
    7.5918    5.2921    1.4857 C   0  0  0  0  0  0  0  0  0  0  0  0
    7.7079    3.8930    0.8729 C   0  0  0  0  0  0  0  0  0  0  0  0
    6.7367    3.6393   -0.2837 C   0  0  0  0  0  0  0  0  0  0  0  0
    6.8519    2.2323   -0.8775 C   0  0  0  0  0  0  0  0  0  0  0  0
    5.8569    1.9385   -2.0156 C   0  0  2  0  0  0  0  0  0  0  0  0
    4.8401    2.1815   -1.6695 H   0  0  0  0  0  0  0  0  0  0  0  0
    5.8911    0.4525   -2.4444 C   0  0  0  0  0  0  0  0  0  0  0  0
    5.5448   -0.4704   -1.3723 N   0  0  0  0  0  0  0  0  0  0  0  0
    4.1310   -0.4729   -1.0440 C   0  0  0  0  0  0  0  0  0  0  0  0
    6.0471   -1.8118   -1.6022 C   0  0  0  0  0  0  0  0  0  0  0  0
    6.0528    2.8407   -3.2363 C   0  0  0  0  0  0  0  0  0  0  0  0
    5.1463    3.5466   -3.6432 O   0  0  0  0  0  0  0  0  0  0  0  0
    7.3806    2.8155   -3.9177 C   0  0  0  0  0  0  0  0  0  0  0  0
    7.6034    3.5771   -5.0094 C   0  0  0  0  0  0  0  0  0  0  0  0
    8.8268    3.6800   -5.8060 C   0  0  0  0  0  0  0  0  0  0  0  0
    8.8487    4.5437   -6.9188 C   0  0  0  0  0  0  0  0  0  0  0  0
    9.9893    4.6751   -7.7065 C   0  0  0  0  0  0  0  0  0  0  0  0
   11.1440    3.9458   -7.4048 C   0  0  0  0  0  0  0  0  0  0  0  0
   12.5541    4.1264   -8.4016 Cl  0  0  0  0  0  0  0  0  0  0  0  0
   11.1410    3.0768   -6.2956 C   0  0  0  0  0  0  0  0  0  0  0  0
   12.5553    2.1497   -5.8834 Cl  0  0  0  0  0  0  0  0  0  0  0  0
    9.9956    2.9512   -5.5125 C   0  0  0  0  0  0  0  0  0  0  0  0
    8.4542    6.5525    3.0545 H   0  0  0  0  0  0  0  0  0  0  0  0
    9.6133    5.4281    2.3092 H   0  0  0  0  0  0  0  0  0  0  0  0
    8.4038    4.8218    3.4611 H   0  0  0  0  0  0  0  0  0  0  0  0
    7.7548    6.0481    0.6961 H   0  0  0  0  0  0  0  0  0  0  0  0
    6.5559    5.4481    1.8382 H   0  0  0  0  0  0  0  0  0  0  0  0
    7.5426    3.1342    1.6607 H   0  0  0  0  0  0  0  0  0  0  0  0
    8.7449    3.7352    0.5209 H   0  0  0  0  0  0  0  0  0  0  0  0
    6.9045    4.3970   -1.0708 H   0  0  0  0  0  0  0  0  0  0  0  0
    5.7006    3.8009    0.0663 H   0  0  0  0  0  0  0  0  0  0  0  0
    6.6812    1.4755   -0.0945 H   0  0  0  0  0  0  0  0  0  0  0  0
    7.8860    2.0627   -1.2305 H   0  0  0  0  0  0  0  0  0  0  0  0
    6.9118    0.2036   -2.7790 H   0  0  0  0  0  0  0  0  0  0  0  0
    5.2300    0.3149   -3.3317 H   0  0  0  0  0  0  0  0  0  0  0  0
    3.7865    0.5382   -0.7824 H   0  0  0  0  0  0  0  0  0  0  0  0
    3.9496   -1.1193   -0.1709 H   0  0  0  0  0  0  0  0  0  0  0  0
    3.4909   -0.8417   -1.8793 H   0  0  0  0  0  0  0  0  0  0  0  0
    7.1383   -1.7917   -1.7508 H   0  0  0  0  0  0  0  0  0  0  0  0
    5.5924   -2.3096   -2.4905 H   0  0  0  0  0  0  0  0  0  0  0  0
    5.8395   -2.4464   -0.7258 H   0  0  0  0  0  0  0  0  0  0  0  0
    8.1581    2.1652   -3.5089 H   0  0  0  0  0  0  0  0  0  0  0  0
    6.7602    4.1953   -5.3382 H   0  0  0  0  0  0  0  0  0  0  0  0
    7.9546    5.1202   -7.1675 H   0  0  0  0  0  0  0  0  0  0  0  0
   10.0002    5.3458   -8.5671 H   0  0  0  0  0  0  0  0  0  0  0  0
   10.0294    2.2699   -4.6618 H   0  0  0  0  0  0  0  0  0  0  0  0
  1  2  1  0
  1 24  1  0
  1 25  1  0
  1 26  1  0
  2  3  1  0
  2 27  1  0
  2 28  1  0
  3  4  1  0
  3 29  1  0
  3 30  1  0
  4  5  1  0
  4 31  1  0
  4 32  1  0
  5  6  1  0
  5 33  1  0
  5 34  1  0
  6  7  1  1
  6  8  1  0
  6 12  1  0
  8  9  1  0
  8 35  1  0
  8 36  1  0
  9 10  1  0
  9 11  1  0
 10 37  1  0
 10 38  1  0
 10 39  1  0
 11 40  1  0
 11 41  1  0
 11 42  1  0
 12 13  2  0
 12 14  1  0
 14 15  2  0
 14 43  1  0
 15 16  1  0
 15 44  1  0
 16 17  2  0
 16 23  1  0
 17 18  1  0
 17 45  1  0
 18 19  2  0
 18 46  1  0
 19 20  1  0
 19 21  1  0
 21 22  1  0
 21 23  2  0
 23 47  1  0
M  END

