
     RDKit          3D

 52 55  0  0  0  0  0  0  0  0999 V2000
    2.8085   -0.5195    8.4333 C   0  0  0  0  0  0  0  0  0  0  0  0
    4.0895    0.2972    8.4279 C   0  0  0  0  0  0  0  0  0  0  0  0
    4.1604    1.1730    7.2850 O   0  0  0  0  0  0  0  0  0  0  0  0
    4.6497    0.6784    6.1405 C   0  0  0  0  0  0  0  0  0  0  0  0
    5.0349   -0.4801    6.0505 O   0  0  0  0  0  0  0  0  0  0  0  0
    4.6712    1.6720    5.0347 C   0  0  0  0  0  0  0  0  0  0  0  0
    4.1893    2.9751    5.2642 C   0  0  0  0  0  0  0  0  0  0  0  0
    4.1892    3.9346    4.2588 C   0  0  0  0  0  0  0  0  0  0  0  0
    4.6799    3.5928    2.9932 C   0  0  0  0  0  0  0  0  0  0  0  0
    5.1644    2.3145    2.7297 C   0  0  0  0  0  0  0  0  0  0  0  0
    5.1711    1.3318    3.7405 C   0  0  0  0  0  0  0  0  0  0  0  0
    5.6507    0.0380    3.5178 N   0  0  0  0  0  0  0  0  0  0  0  0
    6.1790   -0.5088    2.3744 C   0  0  0  0  0  0  0  0  0  0  0  0
    6.2935    0.0776    1.3085 O   0  0  0  0  0  0  0  0  0  0  0  0
    6.6696   -1.9464    2.5383 C   0  0  0  0  0  0  0  0  0  0  0  0
    6.3240   -2.8159    1.3050 C   0  0  0  0  0  0  0  0  0  0  0  0
    7.2540   -3.8978    1.0047 N   0  0  0  0  0  0  0  0  0  0  0  0
    7.1238   -5.1199    1.7009 C   0  0  0  0  0  0  0  0  0  0  0  0
    6.3000   -5.2400    2.8381 C   0  0  0  0  0  0  0  0  0  0  0  0
    6.1581   -6.4542    3.5169 C   0  0  0  0  0  0  0  0  0  0  0  0
    6.8584   -7.5842    3.1002 C   0  0  0  0  0  0  0  0  0  0  0  0
    7.6899   -7.4853    1.9813 C   0  0  0  0  0  0  0  0  0  0  0  0
    7.8053   -6.2851    1.2747 C   0  0  0  0  0  0  0  0  0  0  0  0
    8.7163   -6.2924   -0.2484 S   0  0  0  0  0  0  0  0  0  0  0  0
    9.2336   -4.5938   -0.2894 C   0  0  0  0  0  0  0  0  0  0  0  0
   10.4031   -4.2776   -0.9858 C   0  0  0  0  0  0  0  0  0  0  0  0
   10.7713   -2.9467   -1.2004 C   0  0  0  0  0  0  0  0  0  0  0  0
    9.9571   -1.9350   -0.6958 C   0  0  0  0  0  0  0  0  0  0  0  0
    8.8048   -2.2419    0.0356 C   0  0  0  0  0  0  0  0  0  0  0  0
    8.4180   -3.5788    0.2635 C   0  0  0  0  0  0  0  0  0  0  0  0
    2.7510   -1.1134    9.3595 H   0  0  0  0  0  0  0  0  0  0  0  0
    2.7813   -1.2138    7.5807 H   0  0  0  0  0  0  0  0  0  0  0  0
    1.9233    0.1338    8.3886 H   0  0  0  0  0  0  0  0  0  0  0  0
    4.9749   -0.3546    8.4319 H   0  0  0  0  0  0  0  0  0  0  0  0
    4.1361    0.9737    9.2932 H   0  0  0  0  0  0  0  0  0  0  0  0
    3.8116    3.2169    6.2573 H   0  0  0  0  0  0  0  0  0  0  0  0
    3.8106    4.9395    4.4569 H   0  0  0  0  0  0  0  0  0  0  0  0
    4.6866    4.3354    2.1908 H   0  0  0  0  0  0  0  0  0  0  0  0
    5.5442    2.0484    1.7467 H   0  0  0  0  0  0  0  0  0  0  0  0
    5.5929   -0.5555    4.3505 H   0  0  0  0  0  0  0  0  0  0  0  0
    6.2963   -2.3882    3.4734 H   0  0  0  0  0  0  0  0  0  0  0  0
    7.7663   -1.8884    2.6426 H   0  0  0  0  0  0  0  0  0  0  0  0
    6.2753   -2.1580    0.4279 H   0  0  0  0  0  0  0  0  0  0  0  0
    5.3205   -3.2510    1.4230 H   0  0  0  0  0  0  0  0  0  0  0  0
    5.7517   -4.3779    3.2117 H   0  0  0  0  0  0  0  0  0  0  0  0
    5.4996   -6.5008    4.3877 H   0  0  0  0  0  0  0  0  0  0  0  0
    6.7631   -8.5327    3.6331 H   0  0  0  0  0  0  0  0  0  0  0  0
    8.2480   -8.3565    1.6290 H   0  0  0  0  0  0  0  0  0  0  0  0
   11.0149   -5.0920   -1.3820 H   0  0  0  0  0  0  0  0  0  0  0  0
   11.6785   -2.7109   -1.7611 H   0  0  0  0  0  0  0  0  0  0  0  0
   10.2131   -0.8853   -0.8589 H   0  0  0  0  0  0  0  0  0  0  0  0
    8.2016   -1.4153    0.4082 H   0  0  0  0  0  0  0  0  0  0  0  0
  1  2  1  0
  1 31  1  0
  1 32  1  0
  1 33  1  0
  2  3  1  0
  2 34  1  0
  2 35  1  0
  3  4  1  0
  4  5  2  0
  4  6  1  0
  6  7  2  0
  6 11  1  0
  7  8  1  0
  7 36  1  0
  8  9  2  0
  8 37  1  0
  9 10  1  0
  9 38  1  0
 10 11  2  0
 10 39  1  0
 11 12  1  0
 12 13  1  0
 12 40  1  0
 13 14  2  0
 13 15  1  0
 15 16  1  0
 15 41  1  0
 15 42  1  0
 16 17  1  0
 16 43  1  0
 16 44  1  0
 17 18  1  0
 17 30  1  0
 18 19  2  0
 18 23  1  0
 19 20  1  0
 19 45  1  0
 20 21  2  0
 20 46  1  0
 21 22  1  0
 21 47  1  0
 22 23  2  0
 22 48  1  0
 23 24  1  0
 24 25  1  0
 25 26  2  0
 25 30  1  0
 26 27  1  0
 26 49  1  0
 27 28  2  0
 27 50  1  0
 28 29  1  0
 28 51  1  0
 29 30  2  0
 29 52  1  0
M  END

