
     RDKit          3D

 44 44  0  0  0  0  0  0  0  0999 V2000
    1.5598   -1.0717    2.4015 C   0  0  0  0  0  0  0  0  0  0  0  0
    2.4256   -0.2749    1.7653 C   0  0  0  0  0  0  0  0  0  0  0  0
    3.3412   -0.7070    0.6543 C   0  0  0  0  0  0  0  0  0  0  0  0
    4.8745   -0.3782    0.7547 C   0  0  1  0  0  0  0  0  0  0  0  0
    5.4664   -0.8175   -0.5190 N   0  0  0  0  0  0  0  0  0  0  0  0
    4.9576    1.1750    0.8580 C   0  0  0  0  0  0  0  0  0  0  0  0
    4.8195    1.8709    2.0715 C   0  0  0  0  0  0  0  0  0  0  0  0
    4.8255    3.2697    2.1124 C   0  0  0  0  0  0  0  0  0  0  0  0
    4.9605    4.0104    0.9363 C   0  0  0  0  0  0  0  0  0  0  0  0
    5.0866    3.3335   -0.2800 C   0  0  0  0  0  0  0  0  0  0  0  0
    5.0847    1.9368   -0.3158 C   0  0  0  0  0  0  0  0  0  0  0  0
    5.5887   -1.1080    1.9682 C   0  0  1  0  0  0  0  0  0  0  0  0
    5.0304   -2.5307    2.2461 C   0  0  0  0  0  0  0  0  0  0  0  0
    5.1477   -3.6498    1.1904 C   0  0  0  0  0  0  0  0  0  0  0  0
    6.5297   -4.2766    0.9819 C   0  0  0  0  0  0  0  0  0  0  0  0
    7.0641   -1.1216    1.8090 N   0  0  0  0  0  0  0  0  0  0  0  0
    7.7027    0.1610    1.5216 C   0  0  0  0  0  0  0  0  0  0  0  0
    7.7545   -1.7340    2.9371 C   0  0  0  0  0  0  0  0  0  0  0  0
    0.8851   -0.6822    3.1691 H   0  0  0  0  0  0  0  0  0  0  0  0
    1.4813   -2.1407    2.1746 H   0  0  0  0  0  0  0  0  0  0  0  0
    2.4440    0.7888    2.0239 H   0  0  0  0  0  0  0  0  0  0  0  0
    3.0132   -0.1933   -0.2680 H   0  0  0  0  0  0  0  0  0  0  0  0
    3.2076   -1.7838    0.4716 H   0  0  0  0  0  0  0  0  0  0  0  0
    4.8956   -1.5284   -0.9684 H   0  0  0  0  0  0  0  0  0  0  0  0
    6.3821   -1.2320   -0.3466 H   0  0  0  0  0  0  0  0  0  0  0  0
    4.7066    1.3280    3.0114 H   0  0  0  0  0  0  0  0  0  0  0  0
    4.7228    3.7801    3.0740 H   0  0  0  0  0  0  0  0  0  0  0  0
    4.9664    5.1031    0.9676 H   0  0  0  0  0  0  0  0  0  0  0  0
    5.1916    3.8966   -1.2116 H   0  0  0  0  0  0  0  0  0  0  0  0
    5.2039    1.4028   -1.2594 H   0  0  0  0  0  0  0  0  0  0  0  0
    5.3300   -0.5349    2.8837 H   0  0  0  0  0  0  0  0  0  0  0  0
    3.9677   -2.3984    2.4889 H   0  0  0  0  0  0  0  0  0  0  0  0
    5.4688   -2.8962    3.1885 H   0  0  0  0  0  0  0  0  0  0  0  0
    4.7713   -3.2940    0.2190 H   0  0  0  0  0  0  0  0  0  0  0  0
    4.4490   -4.4503    1.4942 H   0  0  0  0  0  0  0  0  0  0  0  0
    7.2669   -3.5326    0.6466 H   0  0  0  0  0  0  0  0  0  0  0  0
    6.4822   -5.0788    0.2273 H   0  0  0  0  0  0  0  0  0  0  0  0
    6.9106   -4.7302    1.9123 H   0  0  0  0  0  0  0  0  0  0  0  0
    7.3305    0.6050    0.5922 H   0  0  0  0  0  0  0  0  0  0  0  0
    8.7838   -0.0090    1.3976 H   0  0  0  0  0  0  0  0  0  0  0  0
    7.5699    0.9117    2.3296 H   0  0  0  0  0  0  0  0  0  0  0  0
    7.4732   -2.7831    3.0786 H   0  0  0  0  0  0  0  0  0  0  0  0
    7.5706   -1.1983    3.8970 H   0  0  0  0  0  0  0  0  0  0  0  0
    8.8391   -1.7123    2.7515 H   0  0  0  0  0  0  0  0  0  0  0  0
  1  2  2  0
  1 19  1  0
  1 20  1  0
  2  3  1  0
  2 21  1  0
  3  4  1  0
  3 22  1  0
  3 23  1  0
  4  5  1  6
  4  6  1  0
  4 12  1  0
  5 24  1  0
  5 25  1  0
  6  7  2  0
  6 11  1  0
  7  8  1  0
  7 26  1  0
  8  9  2  0
  8 27  1  0
  9 10  1  0
  9 28  1  0
 10 11  2  0
 10 29  1  0
 11 30  1  0
 12 13  1  0
 12 16  1  0
 12 31  1  1
 13 14  1  0
 13 32  1  0
 13 33  1  0
 14 15  1  0
 14 34  1  0
 14 35  1  0
 15 36  1  0
 15 37  1  0
 15 38  1  0
 16 17  1  0
 16 18  1  0
 17 39  1  0
 17 40  1  0
 17 41  1  0
 18 42  1  0
 18 43  1  0
 18 44  1  0
M  END

