
     RDKit          3D

 48 50  0  0  0  0  0  0  0  0999 V2000
    4.9745   -4.4511    0.0355 C   0  0  0  0  0  0  0  0  0  0  0  0
    5.4426   -3.1257   -0.2154 O   0  0  0  0  0  0  0  0  0  0  0  0
    4.9622   -2.1692    0.5973 C   0  0  0  0  0  0  0  0  0  0  0  0
    4.1835   -2.3681    1.5010 O   0  0  0  0  0  0  0  0  0  0  0  0
    5.4872   -0.8359    0.2632 C   0  0  0  0  0  0  0  0  0  0  0  0
    5.2246    0.3850    0.8348 C   0  0  0  0  0  0  0  0  0  0  0  0
    5.9987    1.3385    0.1104 C   0  0  0  0  0  0  0  0  0  0  0  0
    6.6816    0.6301   -0.8473 C   0  0  0  0  0  0  0  0  0  0  0  0
    7.6192    1.0399   -1.9366 C   0  0  0  0  0  0  0  0  0  0  0  0
    6.9677    1.2226   -3.2408 N   0  0  0  0  0  0  0  0  0  0  0  0
    6.7826    0.2334   -4.2043 C   0  0  0  0  0  0  0  0  0  0  0  0
    7.3328   -1.1393   -3.9728 C   0  0  0  0  0  0  0  0  0  0  0  0
    6.0993    0.6804   -5.3033 C   0  0  0  0  0  0  0  0  0  0  0  0
    5.7594   -0.1016   -6.5208 C   0  0  0  0  0  0  0  0  0  0  0  0
    5.8764   -1.3225   -6.5844 O   0  0  0  0  0  0  0  0  0  0  0  0
    5.2902    0.6322   -7.5785 N   0  0  0  0  0  0  0  0  0  0  0  0
    4.8992    0.0085   -8.8345 C   0  0  0  0  0  0  0  0  0  0  0  0
    5.9934   -0.0045   -9.8881 C   0  0  0  0  0  0  0  0  0  0  0  0
    7.1181   -0.8342   -9.7327 C   0  0  0  0  0  0  0  0  0  0  0  0
    8.1346   -0.8341  -10.6883 C   0  0  0  0  0  0  0  0  0  0  0  0
    8.0460   -0.0123  -11.8161 C   0  0  0  0  0  0  0  0  0  0  0  0
    6.9283    0.8105  -11.9807 C   0  0  0  0  0  0  0  0  0  0  0  0
    6.7851    1.6616  -13.2179 C   0  0  1  0  0  0  0  0  0  0  0  0
    7.9763    1.9650  -13.7617 F   0  0  0  0  0  0  0  0  0  0  0  0
    6.0668    1.0351  -14.1708 F   0  0  0  0  0  0  0  0  0  0  0  0
    6.1528    2.8209  -12.9559 F   0  0  0  0  0  0  0  0  0  0  0  0
    5.9096    0.8147  -11.0185 C   0  0  0  0  0  0  0  0  0  0  0  0
    5.6389    2.3869   -5.1230 S   0  0  0  0  0  0  0  0  0  0  0  0
    6.4310    2.4783   -3.5186 C   0  0  0  0  0  0  0  0  0  0  0  0
    6.4868    3.4434   -2.7945 O   0  0  0  0  0  0  0  0  0  0  0  0
    6.3747   -0.6877   -0.7587 O   0  0  0  0  0  0  0  0  0  0  0  0
    5.4573   -5.0914   -0.7126 H   0  0  0  0  0  0  0  0  0  0  0  0
    3.8798   -4.5047   -0.0643 H   0  0  0  0  0  0  0  0  0  0  0  0
    5.2468   -4.7765    1.0511 H   0  0  0  0  0  0  0  0  0  0  0  0
    4.5522    0.5566    1.6718 H   0  0  0  0  0  0  0  0  0  0  0  0
    6.0434    2.4154    0.2567 H   0  0  0  0  0  0  0  0  0  0  0  0
    8.4239    0.3012   -2.0434 H   0  0  0  0  0  0  0  0  0  0  0  0
    8.0639    2.0073   -1.6717 H   0  0  0  0  0  0  0  0  0  0  0  0
    6.9279   -1.5692   -3.0434 H   0  0  0  0  0  0  0  0  0  0  0  0
    8.4317   -1.1086   -3.8751 H   0  0  0  0  0  0  0  0  0  0  0  0
    7.0630   -1.7827   -4.8158 H   0  0  0  0  0  0  0  0  0  0  0  0
    5.3771    1.6422   -7.5588 H   0  0  0  0  0  0  0  0  0  0  0  0
    4.0120    0.5318   -9.2244 H   0  0  0  0  0  0  0  0  0  0  0  0
    4.6056   -1.0222   -8.5909 H   0  0  0  0  0  0  0  0  0  0  0  0
    7.1826   -1.4778   -8.8518 H   0  0  0  0  0  0  0  0  0  0  0  0
    9.0052   -1.4815  -10.5574 H   0  0  0  0  0  0  0  0  0  0  0  0
    8.8414   -0.0070  -12.5633 H   0  0  0  0  0  0  0  0  0  0  0  0
    5.0444    1.4682  -11.1560 H   0  0  0  0  0  0  0  0  0  0  0  0
  1  2  1  0
  1 32  1  0
  1 33  1  0
  1 34  1  0
  2  3  1  0
  3  4  2  0
  3  5  1  0
  5  6  2  0
  5 31  1  0
  6  7  1  0
  6 35  1  0
  7  8  2  0
  7 36  1  0
  8  9  1  0
  8 31  1  0
  9 10  1  0
  9 37  1  0
  9 38  1  0
 10 11  1  0
 10 29  1  0
 11 12  1  0
 11 13  2  0
 12 39  1  0
 12 40  1  0
 12 41  1  0
 13 14  1  0
 13 28  1  0
 14 15  2  0
 14 16  1  0
 16 17  1  0
 16 42  1  0
 17 18  1  0
 17 43  1  0
 17 44  1  0
 18 19  2  0
 18 27  1  0
 19 20  1  0
 19 45  1  0
 20 21  2  0
 20 46  1  0
 21 22  1  0
 21 47  1  0
 22 23  1  0
 22 27  2  0
 23 24  1  6
 23 25  1  0
 23 26  1  0
 27 48  1  0
 28 29  2  0
 29 30  1  0
M  CHG  2  28   1  30  -1
M  END

