
     RDKit          3D

118129  0  0  0  0  0  0  0  0999 V2000
    7.9430    4.3933   -4.1873 C   0  0  0  0  0  0  0  0  0  0  0  0
    7.6245    3.2821   -3.2166 C   0  0  0  0  0  0  0  0  0  0  0  0
    7.4600    3.5297   -1.8449 C   0  0  0  0  0  0  0  0  0  0  0  0
    7.2023    2.5001   -0.9393 C   0  0  0  0  0  0  0  0  0  0  0  0
    7.0784    1.1708   -1.3820 C   0  0  0  0  0  0  0  0  0  0  0  0
    6.8138    0.1175   -0.4709 N   0  0  0  0  0  0  0  0  0  0  0  0
    5.8974    0.2967    0.5970 C   0  0  0  0  0  0  0  0  0  0  0  0
    4.6979    1.0070    0.4145 C   0  0  0  0  0  0  0  0  0  0  0  0
    3.8070    1.1817    1.4746 C   0  0  0  0  0  0  0  0  0  0  0  0
    4.0593    0.6444    2.7459 C   0  0  0  0  0  0  0  0  0  0  0  0
    3.0755    0.8010    3.8799 C   0  0  0  0  0  0  0  0  0  0  0  0
    5.2572   -0.0693    2.9165 C   0  0  0  0  0  0  0  0  0  0  0  0
    6.1645   -0.2370    1.8717 C   0  0  0  0  0  0  0  0  0  0  0  0
    7.4530   -1.1426   -0.6468 C   0  0  0  0  0  0  0  0  0  0  0  0
    8.8499   -1.2003   -0.8686 C   0  0  0  0  0  0  0  0  0  0  0  0
    9.5155   -2.4095   -1.0546 C   0  0  0  0  0  0  0  0  0  0  0  0
    8.7681   -3.5930   -1.0016 C   0  0  0  0  0  0  0  0  0  0  0  0
    7.3712   -3.5589   -0.7506 C   0  0  0  0  0  0  0  0  0  0  0  0
    6.7153   -2.3319   -0.5903 C   0  0  0  0  0  0  0  0  0  0  0  0
    6.9184   -4.9370   -0.7196 C   0  0  0  0  0  0  0  0  0  0  0  0
    5.6596   -5.5274   -0.5533 C   0  0  0  0  0  0  0  0  0  0  0  0
    5.5398   -6.9225   -0.5945 C   0  0  0  0  0  0  0  0  0  0  0  0
    4.2746   -7.5475   -0.4058 N   0  0  0  0  0  0  0  0  0  0  0  0
    3.8505   -8.5582   -1.3049 C   0  0  0  0  0  0  0  0  0  0  0  0
    3.1605   -9.6946   -0.8476 C   0  0  0  0  0  0  0  0  0  0  0  0
    2.7457  -10.6825   -1.7423 C   0  0  0  0  0  0  0  0  0  0  0  0
    3.0138  -10.5930   -3.1163 C   0  0  0  0  0  0  0  0  0  0  0  0
    2.5832  -11.6706   -4.0817 C   0  0  0  0  0  0  0  0  0  0  0  0
    3.7114   -9.4580   -3.5626 C   0  0  0  0  0  0  0  0  0  0  0  0
    4.1167   -8.4552   -2.6839 C   0  0  0  0  0  0  0  0  0  0  0  0
    3.4401   -7.1348    0.6647 C   0  0  0  0  0  0  0  0  0  0  0  0
    2.0531   -6.9895    0.4912 C   0  0  0  0  0  0  0  0  0  0  0  0
    1.2418   -6.5877    1.5542 C   0  0  0  0  0  0  0  0  0  0  0  0
    1.7741   -6.2972    2.8187 C   0  0  0  0  0  0  0  0  0  0  0  0
    0.9001   -5.8512    3.9657 C   0  0  0  0  0  0  0  0  0  0  0  0
    3.1633   -6.4355    2.9795 C   0  0  0  0  0  0  0  0  0  0  0  0
    3.9830   -6.8524    1.9329 C   0  0  0  0  0  0  0  0  0  0  0  0
    6.6912   -7.7128   -0.8255 C   0  0  0  0  0  0  0  0  0  0  0  0
    7.9474   -7.1423   -1.0170 C   0  0  0  0  0  0  0  0  0  0  0  0
    8.0615   -5.7480   -0.9487 C   0  0  0  0  0  0  0  0  0  0  0  0
    9.1824   -4.9261   -1.1187 N   0  0  0  0  0  0  0  0  0  0  0  0
   10.5047   -5.3669   -1.3669 C   0  0  0  0  0  0  0  0  0  0  0  0
   11.2315   -4.8643   -2.4593 C   0  0  0  0  0  0  0  0  0  0  0  0
   12.5344   -5.2947   -2.6963 C   0  0  0  0  0  0  0  0  0  0  0  0
   13.1374   -6.2599   -1.8696 C   0  0  0  0  0  0  0  0  0  0  0  0
   14.5437   -6.6279   -2.1137 C   0  0  0  0  0  0  0  0  0  0  0  0
   15.4345   -5.7355   -2.4899 N   0  0  0  0  0  0  0  0  0  0  0  0
   16.6599   -6.3726   -2.4764 C   0  0  0  0  0  0  0  0  0  0  0  0
   17.9609   -5.9349   -2.7730 C   0  0  0  0  0  0  0  0  0  0  0  0
   18.9940   -6.8624   -2.6293 C   0  0  0  0  0  0  0  0  0  0  0  0
   18.7696   -8.1883   -2.1891 C   0  0  0  0  0  0  0  0  0  0  0  0
   17.4826   -8.6449   -1.8814 C   0  0  0  0  0  0  0  0  0  0  0  0
   16.4794   -7.7005   -2.0566 C   0  0  0  0  0  0  0  0  0  0  0  0
   15.1226   -7.8847   -1.8568 N   0  0  0  0  0  0  0  0  0  0  0  0
   14.6430   -9.2238   -1.8265 C   0  0  0  0  0  0  0  0  0  0  0  0
   13.3090   -9.5328   -2.1324 C   0  0  0  0  0  0  0  0  0  0  0  0
   12.8655  -10.8542   -2.1241 C   0  0  0  0  0  0  0  0  0  0  0  0
   13.7593  -11.8830   -1.8305 C   0  0  0  0  0  0  0  0  0  0  0  0
   15.0968  -11.5764   -1.5737 C   0  0  0  0  0  0  0  0  0  0  0  0
   15.5833  -10.2604   -1.5721 C   0  0  0  0  0  0  0  0  0  0  0  0
   17.0773   -9.9836   -1.2612 C   0  0  2  0  0  0  0  0  0  0  0  0
   17.2361   -9.8684    0.2810 C   0  0  0  0  0  0  0  0  0  0  0  0
   17.9888  -11.1150   -1.7743 C   0  0  0  0  0  0  0  0  0  0  0  0
   12.4074   -6.7533   -0.7732 C   0  0  0  0  0  0  0  0  0  0  0  0
   11.1107   -6.3096   -0.5204 C   0  0  0  0  0  0  0  0  0  0  0  0
    7.2309    0.9140   -2.7574 C   0  0  0  0  0  0  0  0  0  0  0  0
    7.5054    1.9511   -3.6481 C   0  0  0  0  0  0  0  0  0  0  0  0
    7.6444    5.3755   -3.7904 H   0  0  0  0  0  0  0  0  0  0  0  0
    7.4310    4.2475   -5.1519 H   0  0  0  0  0  0  0  0  0  0  0  0
    9.0256    4.4430   -4.4018 H   0  0  0  0  0  0  0  0  0  0  0  0
    7.5477    4.5537   -1.4694 H   0  0  0  0  0  0  0  0  0  0  0  0
    7.0918    2.7258    0.1230 H   0  0  0  0  0  0  0  0  0  0  0  0
    4.4655    1.4277   -0.5656 H   0  0  0  0  0  0  0  0  0  0  0  0
    2.8832    1.7419    1.3016 H   0  0  0  0  0  0  0  0  0  0  0  0
    2.3858    1.6405    3.7044 H   0  0  0  0  0  0  0  0  0  0  0  0
    3.5879    0.9781    4.8391 H   0  0  0  0  0  0  0  0  0  0  0  0
    2.4600   -0.1074    4.0070 H   0  0  0  0  0  0  0  0  0  0  0  0
    5.4951   -0.4940    3.8967 H   0  0  0  0  0  0  0  0  0  0  0  0
    7.0935   -0.7852    2.0394 H   0  0  0  0  0  0  0  0  0  0  0  0
    9.4164   -0.2676   -0.8922 H   0  0  0  0  0  0  0  0  0  0  0  0
   10.5943   -2.4229   -1.2152 H   0  0  0  0  0  0  0  0  0  0  0  0
    5.6391   -2.2956   -0.4114 H   0  0  0  0  0  0  0  0  0  0  0  0
    4.7732   -4.9112   -0.3914 H   0  0  0  0  0  0  0  0  0  0  0  0
    2.9465   -9.8018    0.2174 H   0  0  0  0  0  0  0  0  0  0  0  0
    2.2090  -11.5540   -1.3556 H   0  0  0  0  0  0  0  0  0  0  0  0
    1.9553  -12.4275   -3.5883 H   0  0  0  0  0  0  0  0  0  0  0  0
    3.4522  -12.1931   -4.5180 H   0  0  0  0  0  0  0  0  0  0  0  0
    2.0065  -11.2525   -4.9237 H   0  0  0  0  0  0  0  0  0  0  0  0
    3.9316   -9.3470   -4.6290 H   0  0  0  0  0  0  0  0  0  0  0  0
    4.6441   -7.5784   -3.0642 H   0  0  0  0  0  0  0  0  0  0  0  0
    1.6084   -7.1944   -0.4844 H   0  0  0  0  0  0  0  0  0  0  0  0
    0.1654   -6.4843    1.3879 H   0  0  0  0  0  0  0  0  0  0  0  0
   -0.1598   -5.8101    3.6735 H   0  0  0  0  0  0  0  0  0  0  0  0
    1.1866   -4.8484    4.3257 H   0  0  0  0  0  0  0  0  0  0  0  0
    0.9833   -6.5356    4.8272 H   0  0  0  0  0  0  0  0  0  0  0  0
    3.6157   -6.2238    3.9533 H   0  0  0  0  0  0  0  0  0  0  0  0
    5.0574   -6.9616    2.0925 H   0  0  0  0  0  0  0  0  0  0  0  0
    6.5847   -8.7986   -0.8578 H   0  0  0  0  0  0  0  0  0  0  0  0
    8.8150   -7.7761   -1.2058 H   0  0  0  0  0  0  0  0  0  0  0  0
   10.7636   -4.1410   -3.1295 H   0  0  0  0  0  0  0  0  0  0  0  0
   13.1047   -4.8927   -3.5352 H   0  0  0  0  0  0  0  0  0  0  0  0
   18.1494   -4.9108   -3.1003 H   0  0  0  0  0  0  0  0  0  0  0  0
   20.0192   -6.5564   -2.8528 H   0  0  0  0  0  0  0  0  0  0  0  0
   19.6305   -8.8504   -2.0766 H   0  0  0  0  0  0  0  0  0  0  0  0
   12.6167   -8.7368   -2.3971 H   0  0  0  0  0  0  0  0  0  0  0  0
   11.8215  -11.0729   -2.3610 H   0  0  0  0  0  0  0  0  0  0  0  0
   13.4262  -12.9233   -1.8170 H   0  0  0  0  0  0  0  0  0  0  0  0
   15.7857  -12.3962   -1.3686 H   0  0  0  0  0  0  0  0  0  0  0  0
   16.6156   -9.0541    0.6846 H   0  0  0  0  0  0  0  0  0  0  0  0
   18.2848   -9.6579    0.5444 H   0  0  0  0  0  0  0  0  0  0  0  0
   16.9316  -10.8063    0.7727 H   0  0  0  0  0  0  0  0  0  0  0  0
   17.8642  -11.2746   -2.8559 H   0  0  0  0  0  0  0  0  0  0  0  0
   17.7943  -12.0651   -1.2567 H   0  0  0  0  0  0  0  0  0  0  0  0
   19.0433  -10.8681   -1.5838 H   0  0  0  0  0  0  0  0  0  0  0  0
   12.8671   -7.4711   -0.0910 H   0  0  0  0  0  0  0  0  0  0  0  0
   10.5678   -6.6764    0.3524 H   0  0  0  0  0  0  0  0  0  0  0  0
    7.1283   -0.1080   -3.1271 H   0  0  0  0  0  0  0  0  0  0  0  0
    7.6150    1.7191   -4.7120 H   0  0  0  0  0  0  0  0  0  0  0  0
  1  2  1  0
  1 68  1  0
  1 69  1  0
  1 70  1  0
  2  3  2  0
  2 67  1  0
  3  4  1  0
  3 71  1  0
  4  5  2  0
  4 72  1  0
  5  6  1  0
  5 66  1  0
  6  7  1  0
  6 14  1  0
  7  8  2  0
  7 13  1  0
  8  9  1  0
  8 73  1  0
  9 10  2  0
  9 74  1  0
 10 11  1  0
 10 12  1  0
 11 75  1  0
 11 76  1  0
 11 77  1  0
 12 13  2  0
 12 78  1  0
 13 79  1  0
 14 15  2  0
 14 19  1  0
 15 16  1  0
 15 80  1  0
 16 17  2  0
 16 81  1  0
 17 18  1  0
 17 41  1  0
 18 19  2  0
 18 20  1  0
 19 82  1  0
 20 21  2  0
 20 40  1  0
 21 22  1  0
 21 83  1  0
 22 23  1  0
 22 38  2  0
 23 24  1  0
 23 31  1  0
 24 25  2  0
 24 30  1  0
 25 26  1  0
 25 84  1  0
 26 27  2  0
 26 85  1  0
 27 28  1  0
 27 29  1  0
 28 86  1  0
 28 87  1  0
 28 88  1  0
 29 30  2  0
 29 89  1  0
 30 90  1  0
 31 32  2  0
 31 37  1  0
 32 33  1  0
 32 91  1  0
 33 34  2  0
 33 92  1  0
 34 35  1  0
 34 36  1  0
 35 93  1  0
 35 94  1  0
 35 95  1  0
 36 37  2  0
 36 96  1  0
 37 97  1  0
 38 39  1  0
 38 98  1  0
 39 40  2  0
 39 99  1  0
 40 41  1  0
 41 42  1  0
 42 43  2  0
 42 65  1  0
 43 44  1  0
 43100  1  0
 44 45  2  0
 44101  1  0
 45 46  1  0
 45 64  1  0
 46 47  2  0
 46 54  1  0
 47 48  1  0
 48 49  2  0
 48 53  1  0
 49 50  1  0
 49102  1  0
 50 51  2  0
 50103  1  0
 51 52  1  0
 51104  1  0
 52 53  2  0
 52 61  1  0
 53 54  1  0
 54 55  1  0
 55 56  2  0
 55 60  1  0
 56 57  1  0
 56105  1  0
 57 58  2  0
 57106  1  0
 58 59  1  0
 58107  1  0
 59 60  2  0
 59108  1  0
 60 61  1  0
 61 62  1  1
 61 63  1  0
 62109  1  0
 62110  1  0
 62111  1  0
 63112  1  0
 63113  1  0
 63114  1  0
 64 65  2  0
 64115  1  0
 65116  1  0
 66 67  2  0
 66117  1  0
 67118  1  0
M  END

