
     RDKit          3D

 31 34  0  0  0  0  0  0  0  0999 V2000
    0.9087   -0.1218    0.1871 F   0  0  0  0  0  0  0  0  0  0  0  0
    2.2866   -0.0209    0.1621 B   0  0  1  0  0  0  0  0  0  0  0  0
    2.8076    0.0653    1.4391 F   0  0  0  0  0  0  0  0  0  0  0  0
    2.9078   -1.2517   -0.5848 N   0  0  0  0  0  0  0  0  0  0  0  0
    2.8305   -2.5268   -0.1794 C   0  0  0  0  0  0  0  0  0  0  0  0
    3.5656   -3.3631   -1.0479 C   0  0  0  0  0  0  0  0  0  0  0  0
    4.1150   -2.5373   -2.0237 C   0  0  0  0  0  0  0  0  0  0  0  0
    3.6935   -1.2083   -1.7329 C   0  0  0  0  0  0  0  0  0  0  0  0
    3.9804    0.0130   -2.3755 C   0  0  0  0  0  0  0  0  0  0  0  0
    4.8037    0.0286   -3.6113 C   0  0  0  0  0  0  0  0  0  0  0  0
    5.9667    0.8182   -3.6873 C   0  0  0  0  0  0  0  0  0  0  0  0
    6.7427    0.8270   -4.8482 C   0  0  0  0  0  0  0  0  0  0  0  0
    6.3632    0.0612   -5.9548 C   0  0  0  0  0  0  0  0  0  0  0  0
    5.2053   -0.7198   -5.8930 C   0  0  0  0  0  0  0  0  0  0  0  0
    4.4336   -0.7423   -4.7294 C   0  0  0  0  0  0  0  0  0  0  0  0
    3.4791    1.2184   -1.8448 C   0  0  0  0  0  0  0  0  0  0  0  0
    3.5624    2.5561   -2.3275 C   0  0  0  0  0  0  0  0  0  0  0  0
    2.8588    3.3573   -1.4340 C   0  0  0  0  0  0  0  0  0  0  0  0
    2.3477    2.4967   -0.4373 C   0  0  0  0  0  0  0  0  0  0  0  0
    2.7137    1.2313   -0.6824 N   0  0  0  0  0  0  0  0  0  0  0  0
    2.2658   -2.7908    0.7142 H   0  0  0  0  0  0  0  0  0  0  0  0
    3.6775   -4.4412   -0.9535 H   0  0  0  0  0  0  0  0  0  0  0  0
    4.7591   -2.8290   -2.8496 H   0  0  0  0  0  0  0  0  0  0  0  0
    6.2733    1.4069   -2.8204 H   0  0  0  0  0  0  0  0  0  0  0  0
    7.6508    1.4337   -4.8863 H   0  0  0  0  0  0  0  0  0  0  0  0
    6.9686    0.0739   -6.8645 H   0  0  0  0  0  0  0  0  0  0  0  0
    4.8970   -1.3132   -6.7573 H   0  0  0  0  0  0  0  0  0  0  0  0
    3.5217   -1.3417   -4.6900 H   0  0  0  0  0  0  0  0  0  0  0  0
    4.0744    2.8691   -3.2341 H   0  0  0  0  0  0  0  0  0  0  0  0
    2.7108    4.4340   -1.4842 H   0  0  0  0  0  0  0  0  0  0  0  0
    1.7322    2.7381    0.4286 H   0  0  0  0  0  0  0  0  0  0  0  0
  2  1  1  1
  2  3  1  0
  2  4  1  0
  2 20  1  0
  4  5  1  0
  4  8  1  0
  5  6  2  0
  5 21  1  0
  6  7  1  0
  6 22  1  0
  7  8  2  0
  7 23  1  0
  8  9  1  0
  9 10  1  0
  9 16  2  0
 10 11  2  0
 10 15  1  0
 11 12  1  0
 11 24  1  0
 12 13  2  0
 12 25  1  0
 13 14  1  0
 13 26  1  0
 14 15  2  0
 14 27  1  0
 15 28  1  0
 16 17  1  0
 16 20  1  0
 17 18  2  0
 17 29  1  0
 18 19  1  0
 18 30  1  0
 19 20  2  0
 19 31  1  0
M  CHG  2   2  -1  20   1
M  END

