
     RDKit          3D

 47 46  0  0  0  0  0  0  0  0999 V2000
    2.0724    1.4836    0.2745 C   0  0  0  0  0  0  0  0  0  0  0  0
    3.0202    0.3144    0.0704 C   0  0  0  0  0  0  0  0  0  0  0  0
    3.5314    0.2815   -1.2781 O   0  0  0  0  0  0  0  0  0  0  0  0
    4.6604    0.9533   -1.5436 C   0  0  0  0  0  0  0  0  0  0  0  0
    5.3048    1.5548   -0.7150 O   0  0  0  0  0  0  0  0  0  0  0  0
    4.9914    0.8896   -3.0360 C   0  0  0  0  0  0  0  0  0  0  0  0
    6.3713    1.1847   -3.3131 N   0  0  0  0  0  0  0  0  0  0  0  0
    7.3142    0.0904   -3.0325 C   0  0  1  0  0  0  0  0  0  0  0  0
    7.4965   -0.8998   -4.1971 C   0  0  0  0  0  0  0  0  0  0  0  0
    8.6612    0.6109   -2.5174 C   0  0  0  0  0  0  0  0  0  0  0  0
    6.6689    2.1330   -4.3844 C   0  0  1  0  0  0  0  0  0  0  0  0
    5.9664    1.8927   -5.7307 C   0  0  0  0  0  0  0  0  0  0  0  0
    6.4788    3.6129   -3.9477 C   0  0  0  0  0  0  0  0  0  0  0  0
    6.4428    4.5071   -4.7823 O   0  0  0  0  0  0  0  0  0  0  0  0
    6.4096    3.8133   -2.6075 N   0  0  0  0  0  0  0  0  0  0  0  0
    6.2538    5.1288   -1.9987 C   0  0  1  0  0  0  0  0  0  0  0  0
    4.8984    5.2371   -1.2890 C   0  0  0  0  0  0  0  0  0  0  0  0
    7.4219    5.4469   -1.0473 C   0  0  0  0  0  0  0  0  0  0  0  0
    8.7945    5.4621   -1.7188 C   0  0  0  0  0  0  0  0  0  0  0  0
    1.6398    1.4419    1.2869 H   0  0  0  0  0  0  0  0  0  0  0  0
    1.2471    1.4543   -0.4536 H   0  0  0  0  0  0  0  0  0  0  0  0
    2.6010    2.4432    0.1703 H   0  0  0  0  0  0  0  0  0  0  0  0
    2.5018   -0.6470    0.1968 H   0  0  0  0  0  0  0  0  0  0  0  0
    3.8675    0.3622    0.7696 H   0  0  0  0  0  0  0  0  0  0  0  0
    4.3386    1.6418   -3.5091 H   0  0  0  0  0  0  0  0  0  0  0  0
    4.6366   -0.0880   -3.4205 H   0  0  0  0  0  0  0  0  0  0  0  0
    6.8608   -0.4701   -2.1966 H   0  0  0  0  0  0  0  0  0  0  0  0
    8.0138   -0.4284   -5.0485 H   0  0  0  0  0  0  0  0  0  0  0  0
    6.5283   -1.2822   -4.5578 H   0  0  0  0  0  0  0  0  0  0  0  0
    8.1013   -1.7654   -3.8818 H   0  0  0  0  0  0  0  0  0  0  0  0
    9.2072    1.1790   -3.2881 H   0  0  0  0  0  0  0  0  0  0  0  0
    9.3073   -0.2293   -2.2171 H   0  0  0  0  0  0  0  0  0  0  0  0
    8.5154    1.2659   -1.6459 H   0  0  0  0  0  0  0  0  0  0  0  0
    7.7529    2.0610   -4.5712 H   0  0  0  0  0  0  0  0  0  0  0  0
    4.8708    1.9607   -5.6398 H   0  0  0  0  0  0  0  0  0  0  0  0
    6.2175    0.9023   -6.1373 H   0  0  0  0  0  0  0  0  0  0  0  0
    6.2782    2.6672   -6.4438 H   0  0  0  0  0  0  0  0  0  0  0  0
    6.3973    2.9852   -2.0111 H   0  0  0  0  0  0  0  0  0  0  0  0
    6.2774    5.8403   -2.8393 H   0  0  0  0  0  0  0  0  0  0  0  0
    4.8191    4.4907   -0.4810 H   0  0  0  0  0  0  0  0  0  0  0  0
    4.0729    5.0650   -1.9972 H   0  0  0  0  0  0  0  0  0  0  0  0
    4.7643    6.2366   -0.8451 H   0  0  0  0  0  0  0  0  0  0  0  0
    7.4151    4.7150   -0.2180 H   0  0  0  0  0  0  0  0  0  0  0  0
    7.2243    6.4295   -0.5843 H   0  0  0  0  0  0  0  0  0  0  0  0
    9.0338    4.4813   -2.1590 H   0  0  0  0  0  0  0  0  0  0  0  0
    9.5891    5.7080   -0.9964 H   0  0  0  0  0  0  0  0  0  0  0  0
    8.8345    6.2059   -2.5313 H   0  0  0  0  0  0  0  0  0  0  0  0
  1  2  1  0
  1 20  1  0
  1 21  1  0
  1 22  1  0
  2  3  1  0
  2 23  1  0
  2 24  1  0
  3  4  1  0
  4  5  2  0
  4  6  1  0
  6  7  1  0
  6 25  1  0
  6 26  1  0
  7  8  1  0
  7 11  1  0
  8  9  1  0
  8 10  1  0
  8 27  1  1
  9 28  1  0
  9 29  1  0
  9 30  1  0
 10 31  1  0
 10 32  1  0
 10 33  1  0
 11 12  1  0
 11 13  1  0
 11 34  1  6
 12 35  1  0
 12 36  1  0
 12 37  1  0
 13 14  2  0
 13 15  1  0
 15 16  1  0
 15 38  1  0
 16 17  1  0
 16 18  1  0
 16 39  1  6
 17 40  1  0
 17 41  1  0
 17 42  1  0
 18 19  1  0
 18 43  1  0
 18 44  1  0
 19 45  1  0
 19 46  1  0
 19 47  1  0
M  END

