
     RDKit          3D

 43 44  0  0  0  0  0  0  0  0999 V2000
    1.8975    1.6854    0.8877 C   0  0  0  0  0  0  0  0  0  0  0  0
    1.8346    0.2937    0.6556 O   0  0  0  0  0  0  0  0  0  0  0  0
    2.7152   -0.5192    1.2947 C   0  0  0  0  0  0  0  0  0  0  0  0
    3.7162   -0.0669    2.1478 C   0  0  0  0  0  0  0  0  0  0  0  0
    4.5626   -0.9898    2.7912 C   0  0  0  0  0  0  0  0  0  0  0  0
    5.6156   -0.4249    3.6991 C   0  0  0  0  0  0  0  0  0  0  0  0
    5.7072    0.7863    3.8559 O   0  0  0  0  0  0  0  0  0  0  0  0
    6.5427   -1.3546    4.4016 C   0  0  0  0  0  0  0  0  0  0  0  0
    7.4891   -0.8626    5.2281 C   0  0  0  0  0  0  0  0  0  0  0  0
    8.4837   -1.6057    6.0005 C   0  0  0  0  0  0  0  0  0  0  0  0
    9.3968   -0.9034    6.8153 C   0  0  0  0  0  0  0  0  0  0  0  0
   10.3574   -1.5653    7.5695 C   0  0  0  0  0  0  0  0  0  0  0  0
   10.4718   -2.9669    7.5450 C   0  0  0  0  0  0  0  0  0  0  0  0
   11.3813   -3.6148    8.2870 O   0  0  0  0  0  0  0  0  0  0  0  0
    9.5604   -3.6735    6.7231 C   0  0  0  0  0  0  0  0  0  0  0  0
    9.6005   -5.1440    6.6070 N   0  0  0  0  0  0  0  0  0  0  0  0
   10.6508   -5.7083    6.8527 O   0  0  0  0  0  0  0  0  0  0  0  0
    8.5727   -5.7005    6.2474 O   0  0  0  0  0  0  0  0  0  0  0  0
    8.5882   -3.0058    5.9836 C   0  0  0  0  0  0  0  0  0  0  0  0
    4.3848   -2.3553    2.5686 C   0  0  0  0  0  0  0  0  0  0  0  0
    3.3826   -2.8319    1.7013 C   0  0  0  0  0  0  0  0  0  0  0  0
    3.3322   -4.1827    1.6096 O   0  0  0  0  0  0  0  0  0  0  0  0
    2.4621   -4.8937    0.7464 C   0  0  0  0  0  0  0  0  0  0  0  0
    2.5398   -1.9107    1.0468 C   0  0  0  0  0  0  0  0  0  0  0  0
    1.5204   -2.3407    0.2458 O   0  0  0  0  0  0  0  0  0  0  0  0
    1.5943   -2.0305   -1.1404 C   0  0  0  0  0  0  0  0  0  0  0  0
    1.0887    2.1357    0.2968 H   0  0  0  0  0  0  0  0  0  0  0  0
    2.8628    2.1128    0.5636 H   0  0  0  0  0  0  0  0  0  0  0  0
    1.7438    1.9270    1.9539 H   0  0  0  0  0  0  0  0  0  0  0  0
    3.8731    0.9899    2.3541 H   0  0  0  0  0  0  0  0  0  0  0  0
    6.4441   -2.4277    4.2365 H   0  0  0  0  0  0  0  0  0  0  0  0
    7.5126    0.2280    5.3313 H   0  0  0  0  0  0  0  0  0  0  0  0
    9.3443    0.1874    6.8571 H   0  0  0  0  0  0  0  0  0  0  0  0
   11.0455   -0.9954    8.2015 H   0  0  0  0  0  0  0  0  0  0  0  0
   11.8773   -2.9742    8.8159 H   0  0  0  0  0  0  0  0  0  0  0  0
    7.9078   -3.6206    5.3954 H   0  0  0  0  0  0  0  0  0  0  0  0
    5.0034   -3.1155    3.0430 H   0  0  0  0  0  0  0  0  0  0  0  0
    2.6902   -5.9557    0.9153 H   0  0  0  0  0  0  0  0  0  0  0  0
    2.6486   -4.6567   -0.3145 H   0  0  0  0  0  0  0  0  0  0  0  0
    1.4033   -4.7033    0.9727 H   0  0  0  0  0  0  0  0  0  0  0  0
    0.7168   -2.4954   -1.6116 H   0  0  0  0  0  0  0  0  0  0  0  0
    2.5103   -2.4516   -1.5941 H   0  0  0  0  0  0  0  0  0  0  0  0
    1.5683   -0.9450   -1.3153 H   0  0  0  0  0  0  0  0  0  0  0  0
  1  2  1  0
  1 27  1  0
  1 28  1  0
  1 29  1  0
  2  3  1  0
  3  4  2  0
  3 24  1  0
  4  5  1  0
  4 30  1  0
  5  6  1  0
  5 20  2  0
  6  7  2  0
  6  8  1  0
  8  9  2  0
  8 31  1  0
  9 10  1  0
  9 32  1  0
 10 11  2  0
 10 19  1  0
 11 12  1  0
 11 33  1  0
 12 13  2  0
 12 34  1  0
 13 14  1  0
 13 15  1  0
 14 35  1  0
 15 16  1  0
 15 19  2  0
 16 17  1  0
 16 18  1  0
 19 36  1  0
 20 21  1  0
 20 37  1  0
 21 22  2  0
 21 24  1  0
 22 23  1  0
 23 38  1  0
 23 39  1  0
 23 40  1  0
 24 25  2  0
 25 26  1  0
 26 41  1  0
 26 42  1  0
 26 43  1  0
M  CHG  4  17  -1  18  -1  22   1  25   1
M  END

