
     RDKit          3D

 45 45  0  0  0  0  0  0  0  0999 V2000
    6.1312   -1.2796   -3.5158 C   0  0  0  0  0  0  0  0  0  0  0  0
    6.6245   -0.4317   -2.3345 C   0  0  1  0  0  0  0  0  0  0  0  0
    7.7505    0.5134   -2.7768 C   0  0  0  0  0  0  0  0  0  0  0  0
    5.5100    0.3873   -1.6509 C   0  0  0  0  0  0  0  0  0  0  0  0
    4.2935   -0.3807   -1.1018 C   0  0  2  0  0  0  0  0  0  0  0  0
    3.7020    0.3161   -0.4854 H   0  0  0  0  0  0  0  0  0  0  0  0
    4.6435   -1.4871   -0.2129 N   0  0  0  0  0  0  0  0  0  0  0  0
    4.2296   -1.5038    1.1014 C   0  0  0  0  0  0  0  0  0  0  0  0
    3.4120   -0.7352    1.5661 O   0  0  0  0  0  0  0  0  0  0  0  0
    4.8772   -2.6100    1.9559 C   0  0  0  0  0  0  0  0  0  0  0  0
    6.2565   -2.3195    2.3244 N   0  0  0  0  0  0  0  0  0  0  0  0
    7.2900   -2.5577    1.4772 C   0  0  0  0  0  0  0  0  0  0  0  0
    7.1000   -2.9850    0.3358 O   0  0  0  0  0  0  0  0  0  0  0  0
    8.6605   -2.2293    1.9910 C   0  0  0  0  0  0  0  0  0  0  0  0
    8.8345   -1.0455    2.7335 C   0  0  0  0  0  0  0  0  0  0  0  0
   10.0964   -0.6327    3.1530 C   0  0  0  0  0  0  0  0  0  0  0  0
   10.2683    0.8521    4.0537 Cl  0  0  0  0  0  0  0  0  0  0  0  0
   11.2232   -1.4001    2.8422 C   0  0  0  0  0  0  0  0  0  0  0  0
   11.0635   -2.5780    2.1209 C   0  0  0  0  0  0  0  0  0  0  0  0
    9.8007   -3.0057    1.6869 C   0  0  0  0  0  0  0  0  0  0  0  0
    9.8274   -4.1656    0.9607 O   0  0  0  0  0  0  0  0  0  0  0  0
    8.8470   -5.1357    0.9537 C   0  0  1  0  0  0  0  0  0  0  0  0
    9.4723   -6.3028    0.7589 F   0  0  0  0  0  0  0  0  0  0  0  0
    8.2261   -5.1856    2.1591 F   0  0  0  0  0  0  0  0  0  0  0  0
    3.3161   -0.7998   -2.2222 C   0  0  0  0  0  0  0  0  0  0  0  0
    3.0000   -0.0554   -3.1100 O   0  0  0  0  0  0  0  0  0  0  0  0
    2.8117   -2.0398   -2.1163 O   0  0  0  0  0  0  0  0  0  0  0  0
    6.9744   -1.8076   -3.9894 H   0  0  0  0  0  0  0  0  0  0  0  0
    5.6440   -0.6559   -4.2821 H   0  0  0  0  0  0  0  0  0  0  0  0
    5.4033   -2.0477   -3.2100 H   0  0  0  0  0  0  0  0  0  0  0  0
    7.0575   -1.1204   -1.5853 H   0  0  0  0  0  0  0  0  0  0  0  0
    7.3913    1.2226   -3.5419 H   0  0  0  0  0  0  0  0  0  0  0  0
    8.5933   -0.0478   -3.2107 H   0  0  0  0  0  0  0  0  0  0  0  0
    8.1403    1.1041   -1.9317 H   0  0  0  0  0  0  0  0  0  0  0  0
    5.1103    1.1295   -2.3607 H   0  0  0  0  0  0  0  0  0  0  0  0
    5.9538    0.9548   -0.8157 H   0  0  0  0  0  0  0  0  0  0  0  0
    5.4695   -2.0528   -0.4245 H   0  0  0  0  0  0  0  0  0  0  0  0
    4.8507   -3.5693    1.4147 H   0  0  0  0  0  0  0  0  0  0  0  0
    4.2801   -2.6941    2.8714 H   0  0  0  0  0  0  0  0  0  0  0  0
    6.4523   -2.0365    3.2767 H   0  0  0  0  0  0  0  0  0  0  0  0
    7.9747   -0.4101    2.9512 H   0  0  0  0  0  0  0  0  0  0  0  0
   12.2130   -1.0781    3.1694 H   0  0  0  0  0  0  0  0  0  0  0  0
   11.9223   -3.2056    1.8770 H   0  0  0  0  0  0  0  0  0  0  0  0
    8.0957   -4.9697    0.1695 H   0  0  0  0  0  0  0  0  0  0  0  0
    3.2129   -2.4504   -1.3296 H   0  0  0  0  0  0  0  0  0  0  0  0
  1  2  1  0
  1 28  1  0
  1 29  1  0
  1 30  1  0
  2  3  1  0
  2  4  1  0
  2 31  1  1
  3 32  1  0
  3 33  1  0
  3 34  1  0
  4  5  1  0
  4 35  1  0
  4 36  1  0
  5  6  1  1
  5  7  1  0
  5 25  1  0
  7  8  1  0
  7 37  1  0
  8  9  2  0
  8 10  1  0
 10 11  1  0
 10 38  1  0
 10 39  1  0
 11 12  1  0
 11 40  1  0
 12 13  2  0
 12 14  1  0
 14 15  2  0
 14 20  1  0
 15 16  1  0
 15 41  1  0
 16 17  1  0
 16 18  2  0
 18 19  1  0
 18 42  1  0
 19 20  2  0
 19 43  1  0
 20 21  1  0
 21 22  1  0
 22 23  1  0
 22 24  1  0
 22 44  1  6
 25 26  2  0
 25 27  1  0
 27 45  1  0
M  END

