
     RDKit          3D

 32 35  0  0  0  0  0  0  0  0999 V2000
    1.0783   -0.3631    0.4796 F   0  0  0  0  0  0  0  0  0  0  0  0
    2.3208    0.0094    0.0302 B   0  0  1  0  0  0  0  0  0  0  0  0
    2.3082    0.5598   -1.2225 F   0  0  0  0  0  0  0  0  0  0  0  0
    2.9690    1.0346    1.0547 N   0  0  0  0  0  0  0  0  0  0  0  0
    2.5572    2.2911    1.2793 C   0  0  0  0  0  0  0  0  0  0  0  0
    1.2687    3.0268    0.4463 Cl  0  0  0  0  0  0  0  0  0  0  0  0
    3.3306    2.8925    2.3023 C   0  0  0  0  0  0  0  0  0  0  0  0
    3.1436    4.4939    2.8803 Cl  0  0  0  0  0  0  0  0  0  0  0  0
    4.2535    1.9324    2.7172 C   0  0  0  0  0  0  0  0  0  0  0  0
    5.5517    2.2218    4.0273 Br  0  0  0  0  0  0  0  0  0  0  0  0
    4.0184    0.7634    1.9319 C   0  0  0  0  0  0  0  0  0  0  0  0
    4.6662   -0.4855    1.8994 C   0  0  0  0  0  0  0  0  0  0  0  0
    5.6818   -0.7190    2.7543 O   0  0  0  0  0  0  0  0  0  0  0  0
    5.4798   -1.3031    4.0000 C   0  0  0  0  0  0  0  0  0  0  0  0
    6.6256   -1.4872    4.7775 C   0  0  0  0  0  0  0  0  0  0  0  0
    6.5035   -2.0675    6.0400 C   0  0  0  0  0  0  0  0  0  0  0  0
    5.2497   -2.4608    6.5231 C   0  0  0  0  0  0  0  0  0  0  0  0
    4.1160   -2.2682    5.7312 C   0  0  0  0  0  0  0  0  0  0  0  0
    4.2200   -1.6874    4.4620 C   0  0  0  0  0  0  0  0  0  0  0  0
    4.3327   -1.4670    0.9473 C   0  0  0  0  0  0  0  0  0  0  0  0
    4.9123   -2.7384    0.6539 C   0  0  0  0  0  0  0  0  0  0  0  0
    6.3715   -3.5753    1.4636 Br  0  0  0  0  0  0  0  0  0  0  0  0
    4.1985   -3.2719   -0.4193 C   0  0  0  0  0  0  0  0  0  0  0  0
    4.4481   -4.7704   -1.2103 Cl  0  0  0  0  0  0  0  0  0  0  0  0
    3.2052   -2.3195   -0.7547 C   0  0  0  0  0  0  0  0  0  0  0  0
    2.0430   -2.4884   -1.9861 Cl  0  0  0  0  0  0  0  0  0  0  0  0
    3.2896   -1.2485    0.0484 N   0  0  0  0  0  0  0  0  0  0  0  0
    7.5919   -1.1731    4.3797 H   0  0  0  0  0  0  0  0  0  0  0  0
    7.3973   -2.2137    6.6515 H   0  0  0  0  0  0  0  0  0  0  0  0
    5.1588   -2.9148    7.5122 H   0  0  0  0  0  0  0  0  0  0  0  0
    3.1321   -2.5710    6.0977 H   0  0  0  0  0  0  0  0  0  0  0  0
    3.3291   -1.5402    3.8491 H   0  0  0  0  0  0  0  0  0  0  0  0
  2  1  1  1
  2  3  1  0
  2  4  1  0
  2 27  1  0
  4  5  1  0
  4 11  1  0
  5  6  1  0
  5  7  2  0
  7  8  1  0
  7  9  1  0
  9 10  1  0
  9 11  2  0
 11 12  1  0
 12 13  1  0
 12 20  2  0
 13 14  1  0
 14 15  2  0
 14 19  1  0
 15 16  1  0
 15 28  1  0
 16 17  2  0
 16 29  1  0
 17 18  1  0
 17 30  1  0
 18 19  2  0
 18 31  1  0
 19 32  1  0
 20 21  1  0
 20 27  1  0
 21 22  1  0
 21 23  2  0
 23 24  1  0
 23 25  1  0
 25 26  1  0
 25 27  2  0
M  CHG  2   2  -1  27   1
M  END

