
     RDKit          3D

 48 51  0  0  0  0  0  0  0  0999 V2000
    4.7447   -5.7293    4.6999 C   0  0  0  0  0  0  0  0  0  0  0  0
    5.2101   -4.4907    4.0726 N   0  0  0  0  0  0  0  0  0  0  0  0
    5.3640   -4.4659    2.6733 C   0  0  0  0  0  0  0  0  0  0  0  0
    5.1354   -5.4562    1.9752 O   0  0  0  0  0  0  0  0  0  0  0  0
    5.8085   -3.1845    2.2105 C   0  0  0  0  0  0  0  0  0  0  0  0
    6.0760   -2.1243    3.0623 C   0  0  0  0  0  0  0  0  0  0  0  0
    6.4770   -1.0250    2.3806 N   0  0  0  0  0  0  0  0  0  0  0  0
    6.4534   -1.4042    1.1163 C   0  0  0  0  0  0  0  0  0  0  0  0
    6.8487   -0.3768   -0.1946 Cl  0  0  0  0  0  0  0  0  0  0  0  0
    6.0539   -2.6935    0.9277 N   0  0  0  0  0  0  0  0  0  0  0  0
    5.9094   -3.4263   -0.3270 C   0  0  0  0  0  0  0  0  0  0  0  0
    7.1547   -4.2788   -0.6552 C   0  0  0  0  0  0  0  0  0  0  0  0
    8.0705   -3.8211   -1.3157 O   0  0  0  0  0  0  0  0  0  0  0  0
    7.1104   -5.5405   -0.1525 N   0  0  0  0  0  0  0  0  0  0  0  0
    8.2519   -6.4479   -0.2734 C   0  0  1  0  0  0  0  0  0  0  0  0
    9.1335   -6.4247    0.9727 C   0  0  0  0  0  0  0  0  0  0  0  0
    8.6610   -6.9058    2.2054 C   0  0  0  0  0  0  0  0  0  0  0  0
    9.4549   -6.8452    3.3515 C   0  0  0  0  0  0  0  0  0  0  0  0
   10.7345   -6.2981    3.2572 C   0  0  0  0  0  0  0  0  0  0  0  0
   11.5018   -6.2404    4.3554 F   0  0  0  0  0  0  0  0  0  0  0  0
   11.2316   -5.8114    2.0520 C   0  0  0  0  0  0  0  0  0  0  0  0
   10.4217   -5.8761    0.9140 C   0  0  0  0  0  0  0  0  0  0  0  0
    7.7890   -7.8394   -0.6523 C   0  0  0  0  0  0  0  0  0  0  0  0
    8.3604   -9.0551   -0.3579 C   0  0  0  0  0  0  0  0  0  0  0  0
    7.6953  -10.1558   -0.9812 C   0  0  0  0  0  0  0  0  0  0  0  0
    6.6254   -9.7629   -1.7429 C   0  0  0  0  0  0  0  0  0  0  0  0
    6.4157   -8.0456   -1.7107 S   0  0  0  0  0  0  0  0  0  0  0  0
    5.9239   -2.2349    4.4213 N   0  0  0  0  0  0  0  0  0  0  0  0
    6.2134   -1.1264    5.3273 C   0  0  0  0  0  0  0  0  0  0  0  0
    5.4758   -3.4340    4.9704 C   0  0  0  0  0  0  0  0  0  0  0  0
    5.3202   -3.5691    6.1671 O   0  0  0  0  0  0  0  0  0  0  0  0
    4.5378   -6.4507    3.9034 H   0  0  0  0  0  0  0  0  0  0  0  0
    3.8379   -5.5335    5.2888 H   0  0  0  0  0  0  0  0  0  0  0  0
    5.5122   -6.1212    5.3829 H   0  0  0  0  0  0  0  0  0  0  0  0
    5.7948   -2.6949   -1.1351 H   0  0  0  0  0  0  0  0  0  0  0  0
    5.0073   -4.0476   -0.2516 H   0  0  0  0  0  0  0  0  0  0  0  0
    6.3560   -5.7726    0.5017 H   0  0  0  0  0  0  0  0  0  0  0  0
    8.8461   -6.0330   -1.1028 H   0  0  0  0  0  0  0  0  0  0  0  0
    7.6582   -7.3350    2.2730 H   0  0  0  0  0  0  0  0  0  0  0  0
    9.1017   -7.2170    4.3154 H   0  0  0  0  0  0  0  0  0  0  0  0
   12.2369   -5.3872    2.0170 H   0  0  0  0  0  0  0  0  0  0  0  0
   10.7978   -5.4845   -0.0345 H   0  0  0  0  0  0  0  0  0  0  0  0
    9.2344   -9.1586    0.2859 H   0  0  0  0  0  0  0  0  0  0  0  0
    7.9980  -11.1972   -0.8596 H   0  0  0  0  0  0  0  0  0  0  0  0
    5.9360  -10.3863   -2.3110 H   0  0  0  0  0  0  0  0  0  0  0  0
    6.5402   -0.2728    4.7231 H   0  0  0  0  0  0  0  0  0  0  0  0
    7.0025   -1.4126    6.0376 H   0  0  0  0  0  0  0  0  0  0  0  0
    5.3147   -0.8626    5.9032 H   0  0  0  0  0  0  0  0  0  0  0  0
  1  2  1  0
  1 32  1  0
  1 33  1  0
  1 34  1  0
  2  3  1  0
  2 30  1  0
  3  4  2  0
  3  5  1  0
  5  6  2  0
  5 10  1  0
  6  7  1  0
  6 28  1  0
  7  8  2  0
  8  9  1  0
  8 10  1  0
 10 11  1  0
 11 12  1  0
 11 35  1  0
 11 36  1  0
 12 13  2  0
 12 14  1  0
 14 15  1  0
 14 37  1  0
 15 16  1  0
 15 23  1  0
 15 38  1  6
 16 17  2  0
 16 22  1  0
 17 18  1  0
 17 39  1  0
 18 19  2  0
 18 40  1  0
 19 20  1  0
 19 21  1  0
 21 22  2  0
 21 41  1  0
 22 42  1  0
 23 24  2  0
 23 27  1  0
 24 25  1  0
 24 43  1  0
 25 26  2  0
 25 44  1  0
 26 27  1  0
 26 45  1  0
 28 29  1  0
 28 30  1  0
 29 46  1  0
 29 47  1  0
 29 48  1  0
 30 31  2  0
M  END

