
     RDKit          3D

 47 49  0  0  0  0  0  0  0  0999 V2000
    1.5343    0.6354    1.0158 C   0  0  0  0  0  0  0  0  0  0  0  0
    2.2295    0.0615   -0.1895 C   0  0  0  0  0  0  0  0  0  0  0  0
    2.1569    0.6644   -1.4435 C   0  0  0  0  0  0  0  0  0  0  0  0
    2.8091    0.1263   -2.5696 C   0  0  0  0  0  0  0  0  0  0  0  0
    3.5516   -1.0387   -2.4524 C   0  0  0  0  0  0  0  0  0  0  0  0
    3.6455   -1.6732   -1.2003 C   0  0  0  0  0  0  0  0  0  0  0  0
    4.4275   -2.9113   -1.0693 C   0  0  0  0  0  0  0  0  0  0  0  0
    5.0264   -3.4739   -1.9723 O   0  0  0  0  0  0  0  0  0  0  0  0
    4.4412   -3.4392    0.2379 N   0  0  0  0  0  0  0  0  0  0  0  0
    5.1991   -4.6702    0.4744 C   0  0  0  0  0  0  0  0  0  0  0  0
    4.4994   -5.9226   -0.0585 C   0  0  0  0  0  0  0  0  0  0  0  0
    5.1949   -7.1848    0.4455 C   0  0  0  0  0  0  0  0  0  0  0  0
    5.7312   -7.2359    1.5450 O   0  0  0  0  0  0  0  0  0  0  0  0
    5.1558   -8.2500   -0.3977 N   0  0  0  0  0  0  0  0  0  0  0  0
    5.7378   -9.5272   -0.0628 C   0  0  1  0  0  0  0  0  0  0  0  0
    4.7738  -10.4108    0.7961 C   0  0  0  0  0  0  0  0  0  0  0  0
    5.1279  -11.9035    0.9960 C   0  0  0  0  0  0  0  0  0  0  0  0
    5.0473  -12.8090   -0.2587 C   0  0  0  0  0  0  0  0  0  0  0  0
    6.2761  -12.7195   -1.1985 C   0  0  0  0  0  0  0  0  0  0  0  0
    6.8812  -11.3815   -1.1417 N   0  0  0  0  0  0  0  0  0  0  0  0
    5.9951  -10.3317   -1.3290 C   0  0  0  0  0  0  0  0  0  0  0  0
    5.3158  -10.1890   -2.3262 O   0  0  0  0  0  0  0  0  0  0  0  0
    3.7708   -2.8219    1.2681 C   0  0  0  0  0  0  0  0  0  0  0  0
    3.0769   -1.7417    1.1763 N   0  0  0  0  0  0  0  0  0  0  0  0
    2.9916   -1.1335   -0.0650 C   0  0  0  0  0  0  0  0  0  0  0  0
    0.9916    1.5571    0.7604 H   0  0  0  0  0  0  0  0  0  0  0  0
    2.2546    0.8606    1.8182 H   0  0  0  0  0  0  0  0  0  0  0  0
    0.8210   -0.0870    1.4431 H   0  0  0  0  0  0  0  0  0  0  0  0
    1.5749    1.5840   -1.5534 H   0  0  0  0  0  0  0  0  0  0  0  0
    2.7264    0.6316   -3.5349 H   0  0  0  0  0  0  0  0  0  0  0  0
    4.0698   -1.4851   -3.3030 H   0  0  0  0  0  0  0  0  0  0  0  0
    5.3596   -4.7800    1.5548 H   0  0  0  0  0  0  0  0  0  0  0  0
    6.1802   -4.5606   -0.0091 H   0  0  0  0  0  0  0  0  0  0  0  0
    4.4539   -5.8962   -1.1569 H   0  0  0  0  0  0  0  0  0  0  0  0
    3.4605   -5.9505    0.3161 H   0  0  0  0  0  0  0  0  0  0  0  0
    4.7269   -8.1894   -1.3177 H   0  0  0  0  0  0  0  0  0  0  0  0
    6.6654   -9.3530    0.5076 H   0  0  0  0  0  0  0  0  0  0  0  0
    3.7807  -10.3470    0.3193 H   0  0  0  0  0  0  0  0  0  0  0  0
    4.6912   -9.9212    1.7788 H   0  0  0  0  0  0  0  0  0  0  0  0
    4.4111  -12.2938    1.7365 H   0  0  0  0  0  0  0  0  0  0  0  0
    6.1184  -12.0026    1.4791 H   0  0  0  0  0  0  0  0  0  0  0  0
    4.1372  -12.5404   -0.8211 H   0  0  0  0  0  0  0  0  0  0  0  0
    4.9136  -13.8577    0.0541 H   0  0  0  0  0  0  0  0  0  0  0  0
    5.9959  -12.9500   -2.2362 H   0  0  0  0  0  0  0  0  0  0  0  0
    7.0537  -13.4407   -0.9038 H   0  0  0  0  0  0  0  0  0  0  0  0
    7.4205  -11.2648   -0.2889 H   0  0  0  0  0  0  0  0  0  0  0  0
    3.8647   -3.3243    2.2392 H   0  0  0  0  0  0  0  0  0  0  0  0
  1  2  1  0
  1 26  1  0
  1 27  1  0
  1 28  1  0
  2  3  2  0
  2 25  1  0
  3  4  1  0
  3 29  1  0
  4  5  2  0
  4 30  1  0
  5  6  1  0
  5 31  1  0
  6  7  1  0
  6 25  2  0
  7  8  2  0
  7  9  1  0
  9 10  1  0
  9 23  1  0
 10 11  1  0
 10 32  1  0
 10 33  1  0
 11 12  1  0
 11 34  1  0
 11 35  1  0
 12 13  2  0
 12 14  1  0
 14 15  1  0
 14 36  1  0
 15 16  1  0
 15 21  1  0
 15 37  1  1
 16 17  1  0
 16 38  1  0
 16 39  1  0
 17 18  1  0
 17 40  1  0
 17 41  1  0
 18 19  1  0
 18 42  1  0
 18 43  1  0
 19 20  1  0
 19 44  1  0
 19 45  1  0
 20 21  1  0
 20 46  1  0
 21 22  2  0
 23 24  2  0
 23 47  1  0
 24 25  1  0
M  END

