
     RDKit          3D

 43 44  0  0  0  0  0  0  0  0999 V2000
    1.0555   -2.1247   -0.1476 C   0  0  0  0  0  0  0  0  0  0  0  0
    2.5030   -2.1043   -0.1338 N   0  0  0  0  0  0  0  0  0  0  0  0
    3.2471   -1.5034   -1.1048 C   0  0  0  0  0  0  0  0  0  0  0  0
    2.7638   -0.9325   -2.0727 O   0  0  0  0  0  0  0  0  0  0  0  0
    4.7596   -1.5500   -0.8767 C   0  0  1  0  0  0  0  0  0  0  0  0
    5.4564   -1.9745   -2.1809 C   0  0  0  0  0  0  0  0  0  0  0  0
    6.9169   -1.8935   -2.1235 N   0  0  0  0  0  0  0  0  0  0  0  0
    7.5977   -3.0386   -1.7933 C   0  0  0  0  0  0  0  0  0  0  0  0
    7.0216   -4.0986   -1.5831 O   0  0  0  0  0  0  0  0  0  0  0  0
    9.1019   -3.0472   -1.7086 C   0  0  0  0  0  0  0  0  0  0  0  0
    9.8327   -4.2375   -1.4149 C   0  0  0  0  0  0  0  0  0  0  0  0
   11.1357   -3.8340   -1.4247 C   0  0  0  0  0  0  0  0  0  0  0  0
   12.4352   -4.5217   -1.1985 C   0  0  0  0  0  0  0  0  0  0  0  0
   11.1832   -2.5109   -1.7026 O   0  0  0  0  0  0  0  0  0  0  0  0
    9.9118   -2.0227   -1.8785 N   0  0  0  0  0  0  0  0  0  0  0  0
    7.4816   -0.5555   -2.2376 C   0  0  0  0  0  0  0  0  0  0  0  0
    7.6795    0.1536   -0.8827 C   0  0  0  0  0  0  0  0  0  0  0  0
    6.6071   -0.1072    0.0774 N   0  0  0  0  0  0  0  0  0  0  0  0
    7.0004   -0.7517    1.5784 S   0  0  1  0  0  0  0  0  0  0  0  0
    7.3872    0.6830    2.5960 C   0  0  0  0  0  0  0  0  0  0  0  0
    5.7744   -1.3463    2.1252 O   0  0  0  0  0  0  0  0  0  0  0  0
    8.2355   -1.5310    1.4631 O   0  0  0  0  0  0  0  0  0  0  0  0
    5.2091   -0.1629   -0.3522 C   0  0  0  0  0  0  0  0  0  0  0  0
    0.6335   -1.6073    0.7309 H   0  0  0  0  0  0  0  0  0  0  0  0
    0.6666   -3.1568   -0.1637 H   0  0  0  0  0  0  0  0  0  0  0  0
    0.7236   -1.6068   -1.0570 H   0  0  0  0  0  0  0  0  0  0  0  0
    2.9936   -2.5387    0.6393 H   0  0  0  0  0  0  0  0  0  0  0  0
    4.9980   -2.2821   -0.0917 H   0  0  0  0  0  0  0  0  0  0  0  0
    5.0994   -1.3306   -2.9990 H   0  0  0  0  0  0  0  0  0  0  0  0
    5.1866   -3.0118   -2.4130 H   0  0  0  0  0  0  0  0  0  0  0  0
    9.4152   -5.2209   -1.2257 H   0  0  0  0  0  0  0  0  0  0  0  0
   12.2691   -5.5866   -0.9896 H   0  0  0  0  0  0  0  0  0  0  0  0
   12.9715   -4.0753   -0.3456 H   0  0  0  0  0  0  0  0  0  0  0  0
   13.0869   -4.4329   -2.0828 H   0  0  0  0  0  0  0  0  0  0  0  0
    6.7908    0.0230   -2.8684 H   0  0  0  0  0  0  0  0  0  0  0  0
    8.4507   -0.5835   -2.7504 H   0  0  0  0  0  0  0  0  0  0  0  0
    7.7788    1.2400   -1.0704 H   0  0  0  0  0  0  0  0  0  0  0  0
    8.6198   -0.1977   -0.4385 H   0  0  0  0  0  0  0  0  0  0  0  0
    6.4990    1.3245    2.6571 H   0  0  0  0  0  0  0  0  0  0  0  0
    8.2370    1.2172    2.1513 H   0  0  0  0  0  0  0  0  0  0  0  0
    7.6566    0.2976    3.5891 H   0  0  0  0  0  0  0  0  0  0  0  0
    5.0593    0.6039   -1.1294 H   0  0  0  0  0  0  0  0  0  0  0  0
    4.5672    0.1151    0.4955 H   0  0  0  0  0  0  0  0  0  0  0  0
  1  2  1  0
  1 24  1  0
  1 25  1  0
  1 26  1  0
  2  3  1  0
  2 27  1  0
  3  4  2  0
  3  5  1  0
  5  6  1  0
  5 23  1  0
  5 28  1  1
  6  7  1  0
  6 29  1  0
  6 30  1  0
  7  8  1  0
  7 16  1  0
  8  9  2  0
  8 10  1  0
 10 11  1  0
 10 15  2  0
 11 12  2  0
 11 31  1  0
 12 13  1  0
 12 14  1  0
 13 32  1  0
 13 33  1  0
 13 34  1  0
 14 15  1  0
 16 17  1  0
 16 35  1  0
 16 36  1  0
 17 18  1  0
 17 37  1  0
 17 38  1  0
 18 19  1  0
 18 23  1  0
 19 20  1  1
 19 21  2  0
 19 22  2  0
 20 39  1  0
 20 40  1  0
 20 41  1  0
 23 42  1  0
 23 43  1  0
M  END

