
     RDKit          3D

 55 57  0  0  0  0  0  0  0  0999 V2000
    1.2568    1.2196   -1.0107 C   0  0  0  0  0  0  0  0  0  0  0  0
    2.7584    0.9828   -0.8790 C   0  0  0  0  0  0  0  0  0  0  0  0
    3.2498    1.0069    0.5026 N   0  0  0  0  0  0  0  0  0  0  0  0
    2.5834    0.0864    1.4192 C   0  0  0  0  0  0  0  0  0  0  0  0
    2.7420   -1.3926    1.0317 C   0  0  0  0  0  0  0  0  0  0  0  0
    1.9618   -1.9864    0.3363 O   0  0  0  0  0  0  0  0  0  0  0  0
    3.8823   -1.9973    1.4481 O   0  0  0  0  0  0  0  0  0  0  0  0
    4.6995    0.9678    0.5699 C   0  0  1  0  0  0  0  0  0  0  0  0
    5.4703    2.2050    0.0409 C   0  0  0  0  0  0  0  0  0  0  0  0
    6.4303    2.0921    1.2520 C   0  0  2  0  0  0  0  0  0  0  0  0
    7.6389    1.3618    0.9004 N   0  0  0  0  0  0  0  0  0  0  0  0
    8.5200    1.0148    1.9160 C   0  0  0  0  0  0  0  0  0  0  0  0
    8.2439    1.2205    3.0905 O   0  0  0  0  0  0  0  0  0  0  0  0
    9.7036    0.4079    1.5165 N   0  0  0  0  0  0  0  0  0  0  0  0
   10.7580    0.2357    2.5210 C   0  0  0  0  0  0  0  0  0  0  0  0
   11.3341   -1.1787    2.5260 C   0  0  0  0  0  0  0  0  0  0  0  0
   11.7743   -1.5789    1.1165 C   0  0  0  0  0  0  0  0  0  0  0  0
   10.5926   -1.4502    0.1544 C   0  0  0  0  0  0  0  0  0  0  0  0
    9.9579   -0.0360    0.1445 C   0  0  2  0  0  0  0  0  0  0  0  0
   10.7297    0.9894   -0.7037 C   0  0  0  0  0  0  0  0  0  0  0  0
   11.0490    0.7007   -2.0430 C   0  0  0  0  0  0  0  0  0  0  0  0
   11.7081    1.6264   -2.8526 C   0  0  0  0  0  0  0  0  0  0  0  0
   12.0531    2.8660   -2.3167 C   0  0  0  0  0  0  0  0  0  0  0  0
   12.6891    3.7597   -3.0873 F   0  0  0  0  0  0  0  0  0  0  0  0
   11.7435    3.1937   -1.0010 C   0  0  0  0  0  0  0  0  0  0  0  0
   11.0803    2.2535   -0.2057 C   0  0  0  0  0  0  0  0  0  0  0  0
    5.3648    1.2081    1.9496 C   0  0  0  0  0  0  0  0  0  0  0  0
    0.9954    1.3664   -2.0701 H   0  0  0  0  0  0  0  0  0  0  0  0
    0.9499    2.1192   -0.4531 H   0  0  0  0  0  0  0  0  0  0  0  0
    0.6764    0.3584   -0.6482 H   0  0  0  0  0  0  0  0  0  0  0  0
    3.2965    1.7811   -1.4160 H   0  0  0  0  0  0  0  0  0  0  0  0
    3.0236    0.0319   -1.3918 H   0  0  0  0  0  0  0  0  0  0  0  0
    1.5065    0.2987    1.4369 H   0  0  0  0  0  0  0  0  0  0  0  0
    2.9692    0.2604    2.4375 H   0  0  0  0  0  0  0  0  0  0  0  0
    4.3964   -1.4003    2.0109 H   0  0  0  0  0  0  0  0  0  0  0  0
    5.1181    0.0501    0.1031 H   0  0  0  0  0  0  0  0  0  0  0  0
    4.8470    3.1079    0.1153 H   0  0  0  0  0  0  0  0  0  0  0  0
    5.9142    2.1504   -0.9658 H   0  0  0  0  0  0  0  0  0  0  0  0
    6.6706    3.0287    1.7820 H   0  0  0  0  0  0  0  0  0  0  0  0
    8.0368    1.5979   -0.0024 H   0  0  0  0  0  0  0  0  0  0  0  0
   10.3134    0.4947    3.4892 H   0  0  0  0  0  0  0  0  0  0  0  0
   11.5791    0.9530    2.3264 H   0  0  0  0  0  0  0  0  0  0  0  0
   10.5700   -1.8869    2.8920 H   0  0  0  0  0  0  0  0  0  0  0  0
   12.1786   -1.2206    3.2333 H   0  0  0  0  0  0  0  0  0  0  0  0
   12.1581   -2.6121    1.1013 H   0  0  0  0  0  0  0  0  0  0  0  0
   12.6044   -0.9290    0.7852 H   0  0  0  0  0  0  0  0  0  0  0  0
    9.8060   -2.1616    0.4589 H   0  0  0  0  0  0  0  0  0  0  0  0
   10.8862   -1.7279   -0.8689 H   0  0  0  0  0  0  0  0  0  0  0  0
    8.9730   -0.1643   -0.3296 H   0  0  0  0  0  0  0  0  0  0  0  0
   10.7717   -0.2639   -2.4755 H   0  0  0  0  0  0  0  0  0  0  0  0
   11.9551    1.4037   -3.8926 H   0  0  0  0  0  0  0  0  0  0  0  0
   12.0211    4.1753   -0.6119 H   0  0  0  0  0  0  0  0  0  0  0  0
   10.8294    2.5167    0.8230 H   0  0  0  0  0  0  0  0  0  0  0  0
    4.7205    1.8237    2.5946 H   0  0  0  0  0  0  0  0  0  0  0  0
    5.7502    0.3557    2.5286 H   0  0  0  0  0  0  0  0  0  0  0  0
  1  2  1  0
  1 28  1  0
  1 29  1  0
  1 30  1  0
  2  3  1  0
  2 31  1  0
  2 32  1  0
  3  4  1  0
  3  8  1  0
  4  5  1  0
  4 33  1  0
  4 34  1  0
  5  6  2  0
  5  7  1  0
  7 35  1  0
  8  9  1  0
  8 27  1  0
  8 36  1  6
  9 10  1  0
  9 37  1  0
  9 38  1  0
 10 11  1  0
 10 27  1  0
 10 39  1  1
 11 12  1  0
 11 40  1  0
 12 13  2  0
 12 14  1  0
 14 15  1  0
 14 19  1  0
 15 16  1  0
 15 41  1  0
 15 42  1  0
 16 17  1  0
 16 43  1  0
 16 44  1  0
 17 18  1  0
 17 45  1  0
 17 46  1  0
 18 19  1  0
 18 47  1  0
 18 48  1  0
 19 20  1  0
 19 49  1  6
 20 21  2  0
 20 26  1  0
 21 22  1  0
 21 50  1  0
 22 23  2  0
 22 51  1  0
 23 24  1  0
 23 25  1  0
 25 26  2  0
 25 52  1  0
 26 53  1  0
 27 54  1  0
 27 55  1  0
M  END

