
     RDKit          3D

 65 69  0  0  0  0  0  0  0  0999 V2000
    3.4028    1.0198    0.4814 C   0  0  0  0  0  0  0  0  0  0  0  0
    3.0328   -0.2481   -0.0124 O   0  0  0  0  0  0  0  0  0  0  0  0
    3.3803   -0.5982   -1.2743 C   0  0  0  0  0  0  0  0  0  0  0  0
    2.9777   -1.8791   -1.6949 C   0  0  0  0  0  0  0  0  0  0  0  0
    3.2826   -2.3333   -2.9706 C   0  0  0  0  0  0  0  0  0  0  0  0
    4.0057   -1.5153   -3.8500 C   0  0  0  0  0  0  0  0  0  0  0  0
    4.3012   -1.9390   -5.1834 N   0  0  0  0  0  0  0  0  0  0  0  0
    4.1336   -1.0724   -6.1871 N   0  0  0  0  0  0  0  0  0  0  0  0
    4.4754   -1.7105   -7.3116 C   0  0  0  0  0  0  0  0  0  0  0  0
    4.4050   -1.0567   -8.6499 C   0  0  0  0  0  0  0  0  0  0  0  0
    3.9608    0.2276   -8.6290 N   0  0  0  0  0  0  0  0  0  0  0  0
    4.7261   -1.6530   -9.6681 O   0  0  0  0  0  0  0  0  0  0  0  0
    4.8630   -3.0393   -7.0329 C   0  0  0  0  0  0  0  0  0  0  0  0
    4.7450   -3.1565   -5.6553 C   0  0  0  0  0  0  0  0  0  0  0  0
    5.2263   -4.3253   -4.8774 C   0  0  0  0  0  0  0  0  0  0  0  0
    5.3961   -4.3099   -3.6691 O   0  0  0  0  0  0  0  0  0  0  0  0
    5.5326   -5.4155   -5.6838 N   0  0  0  0  0  0  0  0  0  0  0  0
    6.0826   -6.6001   -5.1013 C   0  0  0  0  0  0  0  0  0  0  0  0
    5.5170   -7.2015   -3.9720 C   0  0  0  0  0  0  0  0  0  0  0  0
    6.0733   -8.3679   -3.4372 C   0  0  0  0  0  0  0  0  0  0  0  0
    7.1965   -8.9768   -4.0114 C   0  0  0  0  0  0  0  0  0  0  0  0
    7.8028  -10.2905   -3.4831 C   0  0  1  0  0  0  0  0  0  0  0  0
    7.1179  -10.7988   -2.1996 C   0  0  0  0  0  0  0  0  0  0  0  0
    7.6295  -11.3534   -4.5950 C   0  0  0  0  0  0  0  0  0  0  0  0
    9.2465  -10.0587   -3.1863 N   0  0  0  0  0  0  0  0  0  0  0  0
    9.7078   -8.8111   -2.5629 C   0  0  0  0  0  0  0  0  0  0  0  0
   11.2358   -8.9603   -2.5558 C   0  0  0  0  0  0  0  0  0  0  0  0
   11.4319  -10.4682   -2.4016 C   0  0  0  0  0  0  0  0  0  0  0  0
   10.1565  -11.0812   -2.9833 C   0  0  0  0  0  0  0  0  0  0  0  0
    9.9819  -12.2686   -3.1823 O   0  0  0  0  0  0  0  0  0  0  0  0
    7.7548   -8.3623   -5.1468 C   0  0  0  0  0  0  0  0  0  0  0  0
    7.2183   -7.1923   -5.6779 C   0  0  0  0  0  0  0  0  0  0  0  0
    5.0902   -5.4733   -7.0949 C   0  0  0  0  0  0  0  0  0  0  0  0
    5.3612   -4.1783   -7.8597 C   0  0  0  0  0  0  0  0  0  0  0  0
    4.4056   -0.2422   -3.4412 C   0  0  0  0  0  0  0  0  0  0  0  0
    4.0956    0.2224   -2.1601 C   0  0  0  0  0  0  0  0  0  0  0  0
    3.0208    1.0789    1.5093 H   0  0  0  0  0  0  0  0  0  0  0  0
    2.9581    1.8386   -0.1127 H   0  0  0  0  0  0  0  0  0  0  0  0
    4.5000    1.1495    0.5001 H   0  0  0  0  0  0  0  0  0  0  0  0
    2.4173   -2.5021   -0.9955 H   0  0  0  0  0  0  0  0  0  0  0  0
    2.9601   -3.3254   -3.2842 H   0  0  0  0  0  0  0  0  0  0  0  0
    3.6894    0.6619   -7.7556 H   0  0  0  0  0  0  0  0  0  0  0  0
    3.8751    0.7279   -9.5041 H   0  0  0  0  0  0  0  0  0  0  0  0
    4.6470   -6.7504   -3.4965 H   0  0  0  0  0  0  0  0  0  0  0  0
    5.6030   -8.8003   -2.5537 H   0  0  0  0  0  0  0  0  0  0  0  0
    6.0550  -11.0236   -2.3736 H   0  0  0  0  0  0  0  0  0  0  0  0
    7.1837  -10.0678   -1.3791 H   0  0  0  0  0  0  0  0  0  0  0  0
    7.6098  -11.7282   -1.8789 H   0  0  0  0  0  0  0  0  0  0  0  0
    6.5635  -11.4141   -4.8623 H   0  0  0  0  0  0  0  0  0  0  0  0
    7.9860  -12.3336   -4.2620 H   0  0  0  0  0  0  0  0  0  0  0  0
    8.1917  -11.0771   -5.4987 H   0  0  0  0  0  0  0  0  0  0  0  0
    9.3104   -8.7129   -1.5330 H   0  0  0  0  0  0  0  0  0  0  0  0
    9.3716   -7.9308   -3.1250 H   0  0  0  0  0  0  0  0  0  0  0  0
   11.7089   -8.3622   -1.7635 H   0  0  0  0  0  0  0  0  0  0  0  0
   11.6431   -8.6192   -3.5212 H   0  0  0  0  0  0  0  0  0  0  0  0
   11.4846  -10.7770   -1.3427 H   0  0  0  0  0  0  0  0  0  0  0  0
   12.3181  -10.8838   -2.9021 H   0  0  0  0  0  0  0  0  0  0  0  0
    8.6436   -8.7961   -5.6113 H   0  0  0  0  0  0  0  0  0  0  0  0
    7.6925   -6.7230   -6.5433 H   0  0  0  0  0  0  0  0  0  0  0  0
    4.0060   -5.6943   -7.1220 H   0  0  0  0  0  0  0  0  0  0  0  0
    5.5998   -6.3202   -7.5701 H   0  0  0  0  0  0  0  0  0  0  0  0
    4.8699   -4.1962   -8.8428 H   0  0  0  0  0  0  0  0  0  0  0  0
    6.4421   -4.0571   -8.0560 H   0  0  0  0  0  0  0  0  0  0  0  0
    4.9615    0.3903   -4.1343 H   0  0  0  0  0  0  0  0  0  0  0  0
    4.4229    1.2194   -1.8659 H   0  0  0  0  0  0  0  0  0  0  0  0
  1  2  1  0
  1 37  1  0
  1 38  1  0
  1 39  1  0
  2  3  1  0
  3  4  2  0
  3 36  1  0
  4  5  1  0
  4 40  1  0
  5  6  2  0
  5 41  1  0
  6  7  1  0
  6 35  1  0
  7  8  1  0
  7 14  1  0
  8  9  2  0
  9 10  1  0
  9 13  1  0
 10 11  1  0
 10 12  2  0
 11 42  1  0
 11 43  1  0
 13 14  2  0
 13 34  1  0
 14 15  1  0
 15 16  2  0
 15 17  1  0
 17 18  1  0
 17 33  1  0
 18 19  2  0
 18 32  1  0
 19 20  1  0
 19 44  1  0
 20 21  2  0
 20 45  1  0
 21 22  1  0
 21 31  1  0
 22 23  1  1
 22 24  1  0
 22 25  1  0
 23 46  1  0
 23 47  1  0
 23 48  1  0
 24 49  1  0
 24 50  1  0
 24 51  1  0
 25 26  1  0
 25 29  1  0
 26 27  1  0
 26 52  1  0
 26 53  1  0
 27 28  1  0
 27 54  1  0
 27 55  1  0
 28 29  1  0
 28 56  1  0
 28 57  1  0
 29 30  2  0
 31 32  2  0
 31 58  1  0
 32 59  1  0
 33 34  1  0
 33 60  1  0
 33 61  1  0
 34 62  1  0
 34 63  1  0
 35 36  2  0
 35 64  1  0
 36 65  1  0
M  END

