
     RDKit          3D

 63 65  0  0  0  0  0  0  0  0999 V2000
    2.7447   -7.8235   -3.3626 C   0  0  0  0  0  0  0  0  0  0  0  0
    1.9537   -6.7125   -3.7296 O   0  0  0  0  0  0  0  0  0  0  0  0
    1.5869   -5.8165   -2.7775 C   0  0  0  0  0  0  0  0  0  0  0  0
    0.8581   -4.7034   -3.2122 C   0  0  0  0  0  0  0  0  0  0  0  0
    0.4527   -3.7317   -2.2986 C   0  0  0  0  0  0  0  0  0  0  0  0
    0.7665   -3.8590   -0.9391 C   0  0  0  0  0  0  0  0  0  0  0  0
    0.3989   -2.9214    0.0055 O   0  0  0  0  0  0  0  0  0  0  0  0
   -0.2498   -1.7421   -0.4253 C   0  0  0  0  0  0  0  0  0  0  0  0
    1.4925   -4.9790   -0.4787 C   0  0  0  0  0  0  0  0  0  0  0  0
    1.8237   -5.0858    1.0038 C   0  0  2  0  0  0  0  0  0  0  0  0
    2.2255   -4.1126    1.3220 H   0  0  0  0  0  0  0  0  0  0  0  0
    2.8028   -6.2033    1.3901 C   0  0  0  0  0  0  0  0  0  0  0  0
    1.9612   -7.3821    1.5864 N   0  0  0  0  0  0  0  0  0  0  0  0
    2.2642   -8.5690    0.9771 C   0  0  0  0  0  0  0  0  0  0  0  0
    3.2161   -8.6846    0.2067 O   0  0  0  0  0  0  0  0  0  0  0  0
    1.3969   -9.7651    1.2746 C   0  0  0  0  0  0  0  0  0  0  0  0
    1.2245  -10.7135    0.2529 C   0  0  0  0  0  0  0  0  0  0  0  0
    0.4900  -11.8777    0.4687 C   0  0  0  0  0  0  0  0  0  0  0  0
   -0.0566  -12.1159    1.7346 C   0  0  0  0  0  0  0  0  0  0  0  0
   -0.9714  -13.5772    2.0187 Cl  0  0  0  0  0  0  0  0  0  0  0  0
    0.1295  -11.2038    2.7767 C   0  0  0  0  0  0  0  0  0  0  0  0
    0.8511  -10.0319    2.5399 C   0  0  0  0  0  0  0  0  0  0  0  0
    0.6513   -6.9725    2.1180 C   0  0  0  0  0  0  0  0  0  0  0  0
    0.5721   -5.4471    1.8850 C   0  0  1  0  0  0  0  0  0  0  0  0
   -0.3498   -5.1796    1.3498 H   0  0  0  0  0  0  0  0  0  0  0  0
    0.5763   -4.6694    3.2163 C   0  0  0  0  0  0  0  0  0  0  0  0
    0.7887   -5.2003    4.2969 O   0  0  0  0  0  0  0  0  0  0  0  0
    0.3201   -3.3403    3.0715 N   0  0  0  0  0  0  0  0  0  0  0  0
    0.3327   -2.4117    4.1904 C   0  0  0  0  0  0  0  0  0  0  0  0
    1.6512   -1.6418    4.3555 C   0  0  0  0  0  0  0  0  0  0  0  0
    2.0462   -0.7131    3.1914 C   0  0  1  0  0  0  0  0  0  0  0  0
    1.0670    0.4558    3.0134 C   0  0  0  0  0  0  0  0  0  0  0  0
    3.4785   -0.1960    3.3766 C   0  0  0  0  0  0  0  0  0  0  0  0
    1.8967   -5.9440   -1.4135 C   0  0  0  0  0  0  0  0  0  0  0  0
    2.9291   -8.3916   -4.2843 H   0  0  0  0  0  0  0  0  0  0  0  0
    2.2338   -8.4744   -2.6322 H   0  0  0  0  0  0  0  0  0  0  0  0
    3.7120   -7.5161   -2.9277 H   0  0  0  0  0  0  0  0  0  0  0  0
    0.6214   -4.6096   -4.2736 H   0  0  0  0  0  0  0  0  0  0  0  0
   -0.1072   -2.8714   -2.6645 H   0  0  0  0  0  0  0  0  0  0  0  0
   -0.4050   -1.1209    0.4676 H   0  0  0  0  0  0  0  0  0  0  0  0
   -1.2306   -1.9565   -0.8852 H   0  0  0  0  0  0  0  0  0  0  0  0
    0.3672   -1.1779   -1.1462 H   0  0  0  0  0  0  0  0  0  0  0  0
    3.2951   -5.9418    2.3436 H   0  0  0  0  0  0  0  0  0  0  0  0
    3.5832   -6.4174    0.6527 H   0  0  0  0  0  0  0  0  0  0  0  0
    1.6872  -10.5278   -0.7179 H   0  0  0  0  0  0  0  0  0  0  0  0
    0.3454  -12.6063   -0.3306 H   0  0  0  0  0  0  0  0  0  0  0  0
   -0.2837  -11.4148    3.7643 H   0  0  0  0  0  0  0  0  0  0  0  0
    1.0071   -9.3350    3.3644 H   0  0  0  0  0  0  0  0  0  0  0  0
    0.5718   -7.1610    3.1987 H   0  0  0  0  0  0  0  0  0  0  0  0
   -0.1538   -7.5114    1.6004 H   0  0  0  0  0  0  0  0  0  0  0  0
    0.2207   -2.9934    2.1214 H   0  0  0  0  0  0  0  0  0  0  0  0
    0.1494   -3.0082    5.0951 H   0  0  0  0  0  0  0  0  0  0  0  0
   -0.5156   -1.7155    4.0797 H   0  0  0  0  0  0  0  0  0  0  0  0
    2.4547   -2.3803    4.5191 H   0  0  0  0  0  0  0  0  0  0  0  0
    1.5873   -1.0461    5.2851 H   0  0  0  0  0  0  0  0  0  0  0  0
    2.0298   -1.3143    2.2623 H   0  0  0  0  0  0  0  0  0  0  0  0
    1.0487    1.0951    3.9131 H   0  0  0  0  0  0  0  0  0  0  0  0
    0.0337    0.1173    2.8323 H   0  0  0  0  0  0  0  0  0  0  0  0
    1.3584    1.0923    2.1621 H   0  0  0  0  0  0  0  0  0  0  0  0
    3.5651    0.4044    4.2987 H   0  0  0  0  0  0  0  0  0  0  0  0
    3.7882    0.4433    2.5339 H   0  0  0  0  0  0  0  0  0  0  0  0
    4.1997   -1.0256    3.4522 H   0  0  0  0  0  0  0  0  0  0  0  0
    2.4686   -6.8068   -1.0748 H   0  0  0  0  0  0  0  0  0  0  0  0
  1  2  1  0
  1 35  1  0
  1 36  1  0
  1 37  1  0
  2  3  1  0
  3  4  2  0
  3 34  1  0
  4  5  1  0
  4 38  1  0
  5  6  2  0
  5 39  1  0
  6  7  1  0
  6  9  1  0
  7  8  1  0
  8 40  1  0
  8 41  1  0
  8 42  1  0
  9 10  1  0
  9 34  2  0
 10 11  1  1
 10 12  1  0
 10 24  1  0
 12 13  1  0
 12 43  1  0
 12 44  1  0
 13 14  1  0
 13 23  1  0
 14 15  2  0
 14 16  1  0
 16 17  2  0
 16 22  1  0
 17 18  1  0
 17 45  1  0
 18 19  2  0
 18 46  1  0
 19 20  1  0
 19 21  1  0
 21 22  2  0
 21 47  1  0
 22 48  1  0
 23 24  1  0
 23 49  1  0
 23 50  1  0
 24 25  1  6
 24 26  1  0
 26 27  2  0
 26 28  1  0
 28 29  1  0
 28 51  1  0
 29 30  1  0
 29 52  1  0
 29 53  1  0
 30 31  1  0
 30 54  1  0
 30 55  1  0
 31 32  1  0
 31 33  1  0
 31 56  1  6
 32 57  1  0
 32 58  1  0
 32 59  1  0
 33 60  1  0
 33 61  1  0
 33 62  1  0
 34 63  1  0
M  END

