
     RDKit          3D

 39 39  0  0  0  0  0  0  0  0999 V2000
    5.6781    1.6223   -0.6160 C   0  0  0  0  0  0  0  0  0  0  0  0
    4.5541    1.5382    0.4038 C   0  0  0  0  0  0  0  0  0  0  0  0
    4.9424    0.7861    1.5653 O   0  0  0  0  0  0  0  0  0  0  0  0
    4.7973   -0.5551    1.5165 C   0  0  0  0  0  0  0  0  0  0  0  0
    4.3551   -1.1413    0.5523 O   0  0  0  0  0  0  0  0  0  0  0  0
    5.2347   -1.2208    2.7736 C   0  0  0  0  0  0  0  0  0  0  0  0
    5.7435   -0.5169    3.8761 C   0  0  0  0  0  0  0  0  0  0  0  0
    6.1435   -1.1756    5.0372 C   0  0  0  0  0  0  0  0  0  0  0  0
    6.0365   -2.5780    5.1154 C   0  0  0  0  0  0  0  0  0  0  0  0
    6.4054   -3.3299    6.2399 N   0  0  0  0  0  0  0  0  0  0  0  0
    6.9381   -2.8783    7.4423 C   0  0  0  0  0  0  0  0  0  0  0  0
    7.1995   -1.7047    7.6674 O   0  0  0  0  0  0  0  0  0  0  0  0
    7.1557   -3.8644    8.3863 N   0  0  0  0  0  0  0  0  0  0  0  0
    6.7617   -5.2505    8.2028 C   0  0  0  0  0  0  0  0  0  0  0  0
    7.8079   -3.4479    9.6259 C   0  0  0  0  0  0  0  0  0  0  0  0
    6.8704   -2.7269   10.6001 C   0  0  0  0  0  0  0  0  0  0  0  0
    7.5232   -2.4976   11.9560 C   0  0  0  0  0  0  0  0  0  0  0  0
    8.4919   -3.0913   12.3458 O   0  0  0  0  0  0  0  0  0  0  0  0
    6.9178   -1.5820   12.7457 O   0  0  0  0  0  0  0  0  0  0  0  0
    5.5260   -3.2871    4.0072 C   0  0  0  0  0  0  0  0  0  0  0  0
    5.1326   -2.6189    2.8559 C   0  0  0  0  0  0  0  0  0  0  0  0
    5.3758    2.2700   -1.4548 H   0  0  0  0  0  0  0  0  0  0  0  0
    5.9126    0.6265   -1.0201 H   0  0  0  0  0  0  0  0  0  0  0  0
    6.5890    2.0460   -0.1648 H   0  0  0  0  0  0  0  0  0  0  0  0
    3.6586    1.0765   -0.0379 H   0  0  0  0  0  0  0  0  0  0  0  0
    4.2918    2.5341    0.7902 H   0  0  0  0  0  0  0  0  0  0  0  0
    5.8291    0.5691    3.8200 H   0  0  0  0  0  0  0  0  0  0  0  0
    6.5428   -0.6258    5.8854 H   0  0  0  0  0  0  0  0  0  0  0  0
    6.2918   -4.3284    6.1269 H   0  0  0  0  0  0  0  0  0  0  0  0
    7.3577   -5.7647    7.4240 H   0  0  0  0  0  0  0  0  0  0  0  0
    5.6922   -5.3491    7.9449 H   0  0  0  0  0  0  0  0  0  0  0  0
    6.9192   -5.7979    9.1409 H   0  0  0  0  0  0  0  0  0  0  0  0
    8.6455   -2.7790    9.3818 H   0  0  0  0  0  0  0  0  0  0  0  0
    8.2323   -4.3335   10.1169 H   0  0  0  0  0  0  0  0  0  0  0  0
    5.9571   -3.3269   10.7708 H   0  0  0  0  0  0  0  0  0  0  0  0
    6.5486   -1.7712   10.1555 H   0  0  0  0  0  0  0  0  0  0  0  0
    6.1794   -1.1675   12.2767 H   0  0  0  0  0  0  0  0  0  0  0  0
    5.4393   -4.3771    4.0568 H   0  0  0  0  0  0  0  0  0  0  0  0
    4.7377   -3.1668    1.9982 H   0  0  0  0  0  0  0  0  0  0  0  0
  1  2  1  0
  1 22  1  0
  1 23  1  0
  1 24  1  0
  2  3  1  0
  2 25  1  0
  2 26  1  0
  3  4  1  0
  4  5  2  0
  4  6  1  0
  6  7  2  0
  6 21  1  0
  7  8  1  0
  7 27  1  0
  8  9  2  0
  8 28  1  0
  9 10  1  0
  9 20  1  0
 10 11  1  0
 10 29  1  0
 11 12  2  0
 11 13  1  0
 13 14  1  0
 13 15  1  0
 14 30  1  0
 14 31  1  0
 14 32  1  0
 15 16  1  0
 15 33  1  0
 15 34  1  0
 16 17  1  0
 16 35  1  0
 16 36  1  0
 17 18  2  0
 17 19  1  0
 19 37  1  0
 20 21  2  0
 20 38  1  0
 21 39  1  0
M  END

