
     RDKit          3D

 37 38  0  0  0  0  0  0  0  0999 V2000
    3.2935    1.3325   -0.6390 C   0  0  0  0  0  0  0  0  0  0  0  0
    2.5905    0.2027   -0.1601 O   0  0  0  0  0  0  0  0  0  0  0  0
    3.2341   -0.7057    0.6037 C   0  0  0  0  0  0  0  0  0  0  0  0
    4.5932   -0.6411    0.9389 C   0  0  0  0  0  0  0  0  0  0  0  0
    5.1705   -1.6069    1.7654 C   0  0  0  0  0  0  0  0  0  0  0  0
    4.4015   -2.6640    2.2772 C   0  0  0  0  0  0  0  0  0  0  0  0
    4.9049   -3.7416    3.1678 C   0  0  0  0  0  0  0  0  0  0  0  0
    4.2016   -4.6822    3.4946 O   0  0  0  0  0  0  0  0  0  0  0  0
    6.3397   -3.8190    3.7193 C   0  0  0  0  0  0  0  0  0  0  0  0
    7.0627   -2.6009    3.7272 O   0  0  0  0  0  0  0  0  0  0  0  0
    8.2880   -2.5463    4.2905 C   0  0  0  0  0  0  0  0  0  0  0  0
    8.9031   -3.6082    4.9691 C   0  0  0  0  0  0  0  0  0  0  0  0
   10.1719   -3.4366    5.5306 C   0  0  0  0  0  0  0  0  0  0  0  0
   10.8503   -2.2197    5.4255 C   0  0  0  0  0  0  0  0  0  0  0  0
   10.2517   -1.1617    4.7427 C   0  0  0  0  0  0  0  0  0  0  0  0
    8.9779   -1.3112    4.1693 C   0  0  0  0  0  0  0  0  0  0  0  0
    8.3771   -0.2324    3.4414 C   0  0  0  0  0  0  0  0  0  0  0  0
    7.9059    0.6400    2.8360 N   0  0  0  0  0  0  0  0  0  0  0  0
    3.0357   -2.7334    1.9192 C   0  0  0  0  0  0  0  0  0  0  0  0
    2.4467   -1.7834    1.0995 C   0  0  0  0  0  0  0  0  0  0  0  0
    1.1086   -1.8579    0.8425 O   0  0  0  0  0  0  0  0  0  0  0  0
    0.7148   -2.1283   -0.4944 C   0  0  0  0  0  0  0  0  0  0  0  0
    2.5677    1.9325   -1.2035 H   0  0  0  0  0  0  0  0  0  0  0  0
    4.1223    1.0442   -1.3092 H   0  0  0  0  0  0  0  0  0  0  0  0
    3.6979    1.9391    0.1895 H   0  0  0  0  0  0  0  0  0  0  0  0
    5.2173    0.1776    0.5815 H   0  0  0  0  0  0  0  0  0  0  0  0
    6.2238   -1.5125    2.0103 H   0  0  0  0  0  0  0  0  0  0  0  0
    6.8774   -4.5779    3.1187 H   0  0  0  0  0  0  0  0  0  0  0  0
    6.2327   -4.2206    4.7399 H   0  0  0  0  0  0  0  0  0  0  0  0
    8.3986   -4.5687    5.0668 H   0  0  0  0  0  0  0  0  0  0  0  0
   10.6338   -4.2746    6.0587 H   0  0  0  0  0  0  0  0  0  0  0  0
   11.8403   -2.0965    5.8686 H   0  0  0  0  0  0  0  0  0  0  0  0
   10.7649   -0.2038    4.6394 H   0  0  0  0  0  0  0  0  0  0  0  0
    2.4224   -3.5484    2.3055 H   0  0  0  0  0  0  0  0  0  0  0  0
   -0.3817   -2.2031   -0.4903 H   0  0  0  0  0  0  0  0  0  0  0  0
    1.1354   -3.0879   -0.8473 H   0  0  0  0  0  0  0  0  0  0  0  0
    1.0185   -1.3244   -1.1838 H   0  0  0  0  0  0  0  0  0  0  0  0
  1  2  1  0
  1 23  1  0
  1 24  1  0
  1 25  1  0
  2  3  1  0
  3  4  2  0
  3 20  1  0
  4  5  1  0
  4 26  1  0
  5  6  2  0
  5 27  1  0
  6  7  1  0
  6 19  1  0
  7  8  2  0
  7  9  1  0
  9 10  1  0
  9 28  1  0
  9 29  1  0
 10 11  1  0
 11 12  2  0
 11 16  1  0
 12 13  1  0
 12 30  1  0
 13 14  2  0
 13 31  1  0
 14 15  1  0
 14 32  1  0
 15 16  2  0
 15 33  1  0
 16 17  1  0
 17 18  3  0
 19 20  2  0
 19 34  1  0
 20 21  1  0
 21 22  1  0
 22 35  1  0
 22 36  1  0
 22 37  1  0
M  END

