
     RDKit          3D

 50 51  0  0  0  0  0  0  0  0999 V2000
    1.8564    1.6592   -2.7390 C   0  0  0  0  0  0  0  0  0  0  0  0
    2.0827    0.2214   -2.2639 C   0  0  0  0  0  0  0  0  0  0  0  0
    3.0897    0.0902   -1.2251 N   0  0  0  0  0  0  0  0  0  0  0  0
    4.4511    0.1810   -1.4045 C   0  0  0  0  0  0  0  0  0  0  0  0
    5.3372    0.2113   -0.4544 N   0  0  0  0  0  0  0  0  0  0  0  0
    4.8663    0.2987    0.9126 C   0  0  0  0  0  0  0  0  0  0  0  0
    4.3173   -1.0411    1.4159 C   0  0  0  0  0  0  0  0  0  0  0  0
    3.1140   -1.3061    1.3299 O   0  0  0  0  0  0  0  0  0  0  0  0
    5.2063   -1.9457    1.8933 N   0  0  0  0  0  0  0  0  0  0  0  0
    4.7675   -3.2872    2.2952 C   0  0  0  0  0  0  0  0  0  0  0  0
    6.0589   -3.9545    2.7844 C   0  0  0  0  0  0  0  0  0  0  0  0
    7.1466   -3.2768    1.9369 C   0  0  0  0  0  0  0  0  0  0  0  0
    6.6704   -1.8201    1.8562 C   0  0  0  0  0  0  0  0  0  0  0  0
    4.8828    0.3005   -2.7095 N   0  0  0  0  0  0  0  0  0  0  0  0
    6.2940    0.3623   -2.9990 C   0  0  0  0  0  0  0  0  0  0  0  0
    6.5008    0.4164   -4.4886 C   0  0  0  0  0  0  0  0  0  0  0  0
    5.6257    0.0045   -5.3577 N   0  0  0  0  0  0  0  0  0  0  0  0
    6.0793    0.1125   -6.6566 C   0  0  0  0  0  0  0  0  0  0  0  0
    5.1876   -0.3168   -7.8001 C   0  0  1  0  0  0  0  0  0  0  0  0
    4.8527   -1.8149   -7.7058 C   0  0  0  0  0  0  0  0  0  0  0  0
    3.9121    0.5407   -7.8573 C   0  0  0  0  0  0  0  0  0  0  0  0
    7.3479    0.6215   -6.7681 C   0  0  0  0  0  0  0  0  0  0  0  0
    7.9940    0.9882   -5.2004 S   0  0  0  0  0  0  0  0  0  0  0  0
    1.0664    1.6955   -3.5070 H   0  0  0  0  0  0  0  0  0  0  0  0
    2.7776    2.0758   -3.1734 H   0  0  0  0  0  0  0  0  0  0  0  0
    1.5536    2.3017   -1.8974 H   0  0  0  0  0  0  0  0  0  0  0  0
    2.3138   -0.4260   -3.1336 H   0  0  0  0  0  0  0  0  0  0  0  0
    1.1472   -0.1824   -1.8461 H   0  0  0  0  0  0  0  0  0  0  0  0
    2.7938   -0.3001   -0.3283 H   0  0  0  0  0  0  0  0  0  0  0  0
    4.0374    1.0228    1.0360 H   0  0  0  0  0  0  0  0  0  0  0  0
    5.6962    0.6377    1.5540 H   0  0  0  0  0  0  0  0  0  0  0  0
    4.3273   -3.8158    1.4303 H   0  0  0  0  0  0  0  0  0  0  0  0
    3.9805   -3.2261    3.0623 H   0  0  0  0  0  0  0  0  0  0  0  0
    6.0363   -5.0487    2.6733 H   0  0  0  0  0  0  0  0  0  0  0  0
    6.2198   -3.7329    3.8531 H   0  0  0  0  0  0  0  0  0  0  0  0
    7.1684   -3.7193    0.9268 H   0  0  0  0  0  0  0  0  0  0  0  0
    8.1569   -3.3679    2.3630 H   0  0  0  0  0  0  0  0  0  0  0  0
    6.9893   -1.3102    0.9359 H   0  0  0  0  0  0  0  0  0  0  0  0
    7.0402   -1.2374    2.7211 H   0  0  0  0  0  0  0  0  0  0  0  0
    4.3212   -0.1001   -3.4540 H   0  0  0  0  0  0  0  0  0  0  0  0
    6.8381   -0.5114   -2.5850 H   0  0  0  0  0  0  0  0  0  0  0  0
    6.7445    1.2383   -2.5050 H   0  0  0  0  0  0  0  0  0  0  0  0
    5.7569   -0.1488   -8.7304 H   0  0  0  0  0  0  0  0  0  0  0  0
    4.3174   -2.0321   -6.7682 H   0  0  0  0  0  0  0  0  0  0  0  0
    5.7651   -2.4314   -7.7234 H   0  0  0  0  0  0  0  0  0  0  0  0
    4.2128   -2.1260   -8.5474 H   0  0  0  0  0  0  0  0  0  0  0  0
    3.3308    0.4311   -6.9283 H   0  0  0  0  0  0  0  0  0  0  0  0
    3.2727    0.2338   -8.7008 H   0  0  0  0  0  0  0  0  0  0  0  0
    4.1520    1.6086   -7.9803 H   0  0  0  0  0  0  0  0  0  0  0  0
    7.9237    0.8036   -7.6736 H   0  0  0  0  0  0  0  0  0  0  0  0
  1  2  1  0
  1 24  1  0
  1 25  1  0
  1 26  1  0
  2  3  1  0
  2 27  1  0
  2 28  1  0
  3  4  1  0
  3 29  1  0
  4  5  2  0
  4 14  1  0
  5  6  1  0
  6  7  1  0
  6 30  1  0
  6 31  1  0
  7  8  2  0
  7  9  1  0
  9 10  1  0
  9 13  1  0
 10 11  1  0
 10 32  1  0
 10 33  1  0
 11 12  1  0
 11 34  1  0
 11 35  1  0
 12 13  1  0
 12 36  1  0
 12 37  1  0
 13 38  1  0
 13 39  1  0
 14 15  1  0
 14 40  1  0
 15 16  1  0
 15 41  1  0
 15 42  1  0
 16 17  2  0
 16 23  1  0
 17 18  1  0
 18 19  1  0
 18 22  2  0
 19 20  1  0
 19 21  1  0
 19 43  1  6
 20 44  1  0
 20 45  1  0
 20 46  1  0
 21 47  1  0
 21 48  1  0
 21 49  1  0
 22 23  1  0
 22 50  1  0
M  END

