
     RDKit          3D

 50 51  0  0  0  0  0  0  0  0999 V2000
    1.1334    0.2112    0.2998 C   0  0  0  0  0  0  0  0  0  0  0  0
    2.6256   -0.1307    0.1936 C   0  0  1  0  0  0  0  0  0  0  0  0
    2.8837   -1.5887   -0.2332 C   0  0  0  0  0  0  0  0  0  0  0  0
    2.5755   -1.8073   -1.7189 C   0  0  0  0  0  0  0  0  0  0  0  0
    3.2905   -0.7706   -2.5878 C   0  0  0  0  0  0  0  0  0  0  0  0
    2.9749    0.5889   -2.1620 N   0  0  0  0  0  0  0  0  0  0  0  0
    3.4732    1.6062   -3.0773 C   0  0  0  0  0  0  0  0  0  0  0  0
    2.7184    2.9370   -2.9976 C   0  0  0  0  0  0  0  0  0  0  0  0
    3.2189    3.9652   -4.0151 C   0  0  0  0  0  0  0  0  0  0  0  0
    2.4647    5.2924   -3.9580 C   0  0  0  0  0  0  0  0  0  0  0  0
    3.0017    6.2559   -4.9079 N   0  0  0  0  0  0  0  0  0  0  0  0
    2.3303    7.5438   -4.9153 C   0  0  0  0  0  0  0  0  0  0  0  0
    3.0207    8.5546   -5.8111 C   0  0  0  0  0  0  0  0  0  0  0  0
    2.2917    9.5542   -6.4701 C   0  0  0  0  0  0  0  0  0  0  0  0
    2.9405   10.5212   -7.2455 C   0  0  0  0  0  0  0  0  0  0  0  0
    4.3274   10.4973   -7.3813 C   0  0  0  0  0  0  0  0  0  0  0  0
    5.0736    9.4904   -6.7493 C   0  0  0  0  0  0  0  0  0  0  0  0
    6.5679    9.5124   -6.9308 C   0  0  0  0  0  0  0  0  0  0  0  0
    7.1611   10.4550   -7.3864 O   0  0  0  0  0  0  0  0  0  0  0  0
    7.2399    8.3997   -6.5593 O   0  0  0  0  0  0  0  0  0  0  0  0
    4.4140    8.5347   -5.9628 C   0  0  0  0  0  0  0  0  0  0  0  0
    3.3631    0.8133   -0.7727 C   0  0  0  0  0  0  0  0  0  0  0  0
    0.6114   -0.4885    0.9729 H   0  0  0  0  0  0  0  0  0  0  0  0
    0.6413    0.1769   -0.6834 H   0  0  0  0  0  0  0  0  0  0  0  0
    0.9921    1.2282    0.7016 H   0  0  0  0  0  0  0  0  0  0  0  0
    3.0769    0.0158    1.1913 H   0  0  0  0  0  0  0  0  0  0  0  0
    2.2986   -2.2836    0.3928 H   0  0  0  0  0  0  0  0  0  0  0  0
    3.9479   -1.8258   -0.0524 H   0  0  0  0  0  0  0  0  0  0  0  0
    1.4897   -1.7350   -1.8983 H   0  0  0  0  0  0  0  0  0  0  0  0
    2.8820   -2.8201   -2.0300 H   0  0  0  0  0  0  0  0  0  0  0  0
    2.9861   -0.8885   -3.6408 H   0  0  0  0  0  0  0  0  0  0  0  0
    4.3920   -0.9601   -2.5522 H   0  0  0  0  0  0  0  0  0  0  0  0
    3.3685    1.2127   -4.1026 H   0  0  0  0  0  0  0  0  0  0  0  0
    4.5650    1.7892   -2.9329 H   0  0  0  0  0  0  0  0  0  0  0  0
    2.8061    3.3641   -1.9836 H   0  0  0  0  0  0  0  0  0  0  0  0
    1.6447    2.7340   -3.1537 H   0  0  0  0  0  0  0  0  0  0  0  0
    3.1311    3.5442   -5.0351 H   0  0  0  0  0  0  0  0  0  0  0  0
    4.2930    4.1670   -3.8598 H   0  0  0  0  0  0  0  0  0  0  0  0
    2.5581    5.7246   -2.9450 H   0  0  0  0  0  0  0  0  0  0  0  0
    1.3763    5.1045   -4.1068 H   0  0  0  0  0  0  0  0  0  0  0  0
    2.9922    5.8593   -5.8486 H   0  0  0  0  0  0  0  0  0  0  0  0
    2.3367    7.9274   -3.8772 H   0  0  0  0  0  0  0  0  0  0  0  0
    1.2556    7.4837   -5.1990 H   0  0  0  0  0  0  0  0  0  0  0  0
    1.2022    9.5777   -6.3735 H   0  0  0  0  0  0  0  0  0  0  0  0
    2.3563   11.2955   -7.7490 H   0  0  0  0  0  0  0  0  0  0  0  0
    4.8579   11.2428   -7.9762 H   0  0  0  0  0  0  0  0  0  0  0  0
    6.6221    7.7017   -6.3011 H   0  0  0  0  0  0  0  0  0  0  0  0
    4.9526    7.7461   -5.4292 H   0  0  0  0  0  0  0  0  0  0  0  0
    3.1436    1.8575   -0.5016 H   0  0  0  0  0  0  0  0  0  0  0  0
    4.4648    0.6777   -0.6449 H   0  0  0  0  0  0  0  0  0  0  0  0
  1  2  1  0
  1 23  1  0
  1 24  1  0
  1 25  1  0
  2  3  1  0
  2 22  1  0
  2 26  1  1
  3  4  1  0
  3 27  1  0
  3 28  1  0
  4  5  1  0
  4 29  1  0
  4 30  1  0
  5  6  1  0
  5 31  1  0
  5 32  1  0
  6  7  1  0
  6 22  1  0
  7  8  1  0
  7 33  1  0
  7 34  1  0
  8  9  1  0
  8 35  1  0
  8 36  1  0
  9 10  1  0
  9 37  1  0
  9 38  1  0
 10 11  1  0
 10 39  1  0
 10 40  1  0
 11 12  1  0
 11 41  1  0
 12 13  1  0
 12 42  1  0
 12 43  1  0
 13 14  2  0
 13 21  1  0
 14 15  1  0
 14 44  1  0
 15 16  2  0
 15 45  1  0
 16 17  1  0
 16 46  1  0
 17 18  1  0
 17 21  2  0
 18 19  2  0
 18 20  1  0
 20 47  1  0
 21 48  1  0
 22 49  1  0
 22 50  1  0
M  END

