
     RDKit          3D

 44 47  0  0  0  0  0  0  0  0999 V2000
    3.6222    1.0728   -2.0886 O   0  0  0  0  0  0  0  0  0  0  0  0
    3.6529    0.5272   -0.9959 C   0  0  0  0  0  0  0  0  0  0  0  0
    3.1375   -0.7110   -0.7503 N   0  0  0  0  0  0  0  0  0  0  0  0
    2.4665   -1.4808   -1.7856 C   0  0  0  0  0  0  0  0  0  0  0  0
    3.4171   -2.2470   -2.7158 C   0  0  0  0  0  0  0  0  0  0  0  0
    4.2642   -3.2952   -1.9859 C   0  0  0  0  0  0  0  0  0  0  0  0
    5.1783   -4.0182   -2.8514 N   0  0  0  0  0  0  0  0  0  0  0  0
    4.9906   -5.2780   -3.3820 C   0  0  0  0  0  0  0  0  0  0  0  0
    5.9575   -5.6836   -4.1590 N   0  0  0  0  0  0  0  0  0  0  0  0
    6.8643   -4.6379   -4.1680 C   0  0  0  0  0  0  0  0  0  0  0  0
    8.0975   -4.5163   -4.8280 C   0  0  0  0  0  0  0  0  0  0  0  0
    8.8219   -3.3392   -4.6555 C   0  0  0  0  0  0  0  0  0  0  0  0
    8.3384   -2.2915   -3.8413 C   0  0  0  0  0  0  0  0  0  0  0  0
    7.1166   -2.3883   -3.1759 C   0  0  0  0  0  0  0  0  0  0  0  0
    6.3924   -3.5744   -3.3522 C   0  0  0  0  0  0  0  0  0  0  0  0
    4.2752    1.1903    0.1846 C   0  0  0  0  0  0  0  0  0  0  0  0
    4.8804    2.4654    0.2416 C   0  0  0  0  0  0  0  0  0  0  0  0
    5.3044    2.6694    1.4817 N   0  0  0  0  0  0  0  0  0  0  0  0
    4.9643    1.5577    2.1357 N   0  0  0  0  0  0  0  0  0  0  0  0
    5.2487    1.3729    3.5205 C   0  0  0  0  0  0  0  0  0  0  0  0
    5.9085    2.3864    4.2266 C   0  0  0  0  0  0  0  0  0  0  0  0
    6.1847    2.2003    5.5820 C   0  0  0  0  0  0  0  0  0  0  0  0
    5.8091    1.0190    6.2296 C   0  0  0  0  0  0  0  0  0  0  0  0
    5.1508    0.0161    5.5111 C   0  0  0  0  0  0  0  0  0  0  0  0
    4.8663    0.1849    4.1550 C   0  0  0  0  0  0  0  0  0  0  0  0
    4.3459    0.6443    1.4000 N   0  0  0  0  0  0  0  0  0  0  0  0
    3.1949   -1.0629    0.1987 H   0  0  0  0  0  0  0  0  0  0  0  0
    1.8675   -0.7855   -2.3933 H   0  0  0  0  0  0  0  0  0  0  0  0
    1.7687   -2.1757   -1.2897 H   0  0  0  0  0  0  0  0  0  0  0  0
    4.0713   -1.5230   -3.2264 H   0  0  0  0  0  0  0  0  0  0  0  0
    2.8196   -2.7431   -3.4994 H   0  0  0  0  0  0  0  0  0  0  0  0
    3.6124   -4.0396   -1.4987 H   0  0  0  0  0  0  0  0  0  0  0  0
    4.8502   -2.8146   -1.1852 H   0  0  0  0  0  0  0  0  0  0  0  0
    4.0952   -5.8539   -3.1365 H   0  0  0  0  0  0  0  0  0  0  0  0
    8.4646   -5.3314   -5.4551 H   0  0  0  0  0  0  0  0  0  0  0  0
    9.7842   -3.2187   -5.1593 H   0  0  0  0  0  0  0  0  0  0  0  0
    8.9342   -1.3817   -3.7321 H   0  0  0  0  0  0  0  0  0  0  0  0
    6.7490   -1.5697   -2.5533 H   0  0  0  0  0  0  0  0  0  0  0  0
    5.0109    3.2018   -0.5474 H   0  0  0  0  0  0  0  0  0  0  0  0
    6.1942    3.3002    3.7068 H   0  0  0  0  0  0  0  0  0  0  0  0
    6.6996    2.9892    6.1355 H   0  0  0  0  0  0  0  0  0  0  0  0
    6.0288    0.8803    7.2907 H   0  0  0  0  0  0  0  0  0  0  0  0
    4.8538   -0.9102    6.0088 H   0  0  0  0  0  0  0  0  0  0  0  0
    4.3543   -0.5887    3.5840 H   0  0  0  0  0  0  0  0  0  0  0  0
  1  2  2  0
  2  3  1  0
  2 16  1  0
  3  4  1  0
  3 27  1  0
  4  5  1  0
  4 28  1  0
  4 29  1  0
  5  6  1  0
  5 30  1  0
  5 31  1  0
  6  7  1  0
  6 32  1  0
  6 33  1  0
  7  8  1  0
  7 15  1  0
  8  9  2  0
  8 34  1  0
  9 10  1  0
 10 11  1  0
 10 15  2  0
 11 12  2  0
 11 35  1  0
 12 13  1  0
 12 36  1  0
 13 14  2  0
 13 37  1  0
 14 15  1  0
 14 38  1  0
 16 17  1  0
 16 26  2  0
 17 18  2  0
 17 39  1  0
 18 19  1  0
 19 20  1  0
 19 26  1  0
 20 21  2  0
 20 25  1  0
 21 22  1  0
 21 40  1  0
 22 23  2  0
 22 41  1  0
 23 24  1  0
 23 42  1  0
 24 25  2  0
 24 43  1  0
 25 44  1  0
M  END

