
     RDKit          3D

 38 38  0  0  0  0  0  0  0  0999 V2000
    0.9456   -0.7153    1.1080 C   0  0  0  0  0  0  0  0  0  0  0  0
    0.8234   -0.5556   -0.2847 O   0  0  0  0  0  0  0  0  0  0  0  0
    1.6364   -1.2598   -1.1162 C   0  0  0  0  0  0  0  0  0  0  0  0
    1.4618   -1.0402   -2.4888 C   0  0  0  0  0  0  0  0  0  0  0  0
    2.2637   -1.7282   -3.3979 C   0  0  0  0  0  0  0  0  0  0  0  0
    3.2430   -2.6385   -2.9888 C   0  0  0  0  0  0  0  0  0  0  0  0
    4.1183   -3.3753   -3.9643 C   0  0  0  0  0  0  0  0  0  0  0  0
    5.5616   -2.8881   -4.0192 C   0  0  0  0  0  0  0  0  0  0  0  0
    5.9958   -1.9195   -3.4422 O   0  0  0  0  0  0  0  0  0  0  0  0
    6.3124   -3.6663   -4.8173 O   0  0  0  0  0  0  0  0  0  0  0  0
    7.9956   -3.3857   -5.1268 Si  0  0  1  0  0  4  0  0  0  0  0  0
    8.9442   -3.5080   -3.5114 C   0  0  0  0  0  0  0  0  0  0  0  0
    8.4350   -4.7912   -6.2913 C   0  0  0  0  0  0  0  0  0  0  0  0
    8.1972   -1.7143   -5.9573 C   0  0  0  0  0  0  0  0  0  0  0  0
    3.4023   -2.8503   -1.6046 C   0  0  0  0  0  0  0  0  0  0  0  0
    4.3579   -3.7545   -1.2569 O   0  0  0  0  0  0  0  0  0  0  0  0
    4.6478   -3.9827    0.1018 C   0  0  0  0  0  0  0  0  0  0  0  0
    2.6095   -2.1691   -0.6682 C   0  0  0  0  0  0  0  0  0  0  0  0
    0.1999   -0.0518    1.5671 H   0  0  0  0  0  0  0  0  0  0  0  0
    1.9489   -0.4268    1.4718 H   0  0  0  0  0  0  0  0  0  0  0  0
    0.7393   -1.7539    1.4262 H   0  0  0  0  0  0  0  0  0  0  0  0
    0.7006   -0.3307   -2.8161 H   0  0  0  0  0  0  0  0  0  0  0  0
    2.1263   -1.5495   -4.4683 H   0  0  0  0  0  0  0  0  0  0  0  0
    3.7172   -3.2943   -4.9883 H   0  0  0  0  0  0  0  0  0  0  0  0
    4.1592   -4.4534   -3.7396 H   0  0  0  0  0  0  0  0  0  0  0  0
    8.7775   -4.4852   -3.0292 H   0  0  0  0  0  0  0  0  0  0  0  0
    8.6191   -2.7196   -2.8159 H   0  0  0  0  0  0  0  0  0  0  0  0
   10.0281   -3.3972   -3.6839 H   0  0  0  0  0  0  0  0  0  0  0  0
    8.2581   -5.7701   -5.8169 H   0  0  0  0  0  0  0  0  0  0  0  0
    9.4977   -4.7432   -6.5820 H   0  0  0  0  0  0  0  0  0  0  0  0
    7.8306   -4.7480   -7.2118 H   0  0  0  0  0  0  0  0  0  0  0  0
    7.8657   -0.9089   -5.2846 H   0  0  0  0  0  0  0  0  0  0  0  0
    7.6019   -1.6584   -6.8834 H   0  0  0  0  0  0  0  0  0  0  0  0
    9.2523   -1.5343   -6.2240 H   0  0  0  0  0  0  0  0  0  0  0  0
    5.4642   -4.7171    0.1294 H   0  0  0  0  0  0  0  0  0  0  0  0
    3.7795   -4.3969    0.6462 H   0  0  0  0  0  0  0  0  0  0  0  0
    4.9806   -3.0602    0.6102 H   0  0  0  0  0  0  0  0  0  0  0  0
    2.7491   -2.3455    0.3952 H   0  0  0  0  0  0  0  0  0  0  0  0
  1  2  1  0
  1 19  1  0
  1 20  1  0
  1 21  1  0
  2  3  1  0
  3  4  2  0
  3 18  1  0
  4  5  1  0
  4 22  1  0
  5  6  2  0
  5 23  1  0
  6  7  1  0
  6 15  1  0
  7  8  1  0
  7 24  1  0
  7 25  1  0
  8  9  2  0
  8 10  1  0
 11 10  1  1
 11 12  1  0
 11 13  1  0
 11 14  1  0
 12 26  1  0
 12 27  1  0
 12 28  1  0
 13 29  1  0
 13 30  1  0
 13 31  1  0
 14 32  1  0
 14 33  1  0
 14 34  1  0
 15 16  1  0
 15 18  2  0
 16 17  1  0
 17 35  1  0
 17 36  1  0
 17 37  1  0
 18 38  1  0
M  END

