
     RDKit          3D

 42 44  0  0  0  0  0  0  0  0999 V2000
    2.7130   -0.0567   -1.5128 C   0  0  0  0  0  0  0  0  0  0  0  0
    2.5204    0.2984   -0.0421 C   0  0  1  0  0  0  0  0  0  0  0  0
    1.0618    0.5785    0.3197 C   0  0  0  0  0  0  0  0  0  0  0  0
    3.0520   -1.0994    1.0775 S   0  0  0  0  0  0  0  0  0  0  0  0
    4.7717   -1.2634    0.8350 C   0  0  0  0  0  0  0  0  0  0  0  0
    5.5126   -2.4149    0.9305 C   0  0  0  0  0  0  0  0  0  0  0  0
    5.1212   -3.7894    1.1308 C   0  0  0  0  0  0  0  0  0  0  0  0
    5.9512   -4.9073    1.1577 C   0  0  0  0  0  0  0  0  0  0  0  0
    5.2507   -6.1226    1.3542 C   0  0  0  0  0  0  0  0  0  0  0  0
    3.8936   -5.9365    1.4870 C   0  0  0  0  0  0  0  0  0  0  0  0
    3.4468   -4.2775    1.3677 S   0  0  0  0  0  0  0  0  0  0  0  0
    6.9633   -2.0301    0.7640 C   0  0  0  0  0  0  0  0  0  0  0  0
    7.9312   -2.7517    0.7520 O   0  0  0  0  0  0  0  0  0  0  0  0
    7.0066   -0.6283    0.6036 N   0  0  0  0  0  0  0  0  0  0  0  0
    8.1886    0.1366    0.4080 C   0  0  0  0  0  0  0  0  0  0  0  0
    9.2371   -0.3736   -0.3761 C   0  0  0  0  0  0  0  0  0  0  0  0
   10.3966    0.3769   -0.5633 C   0  0  0  0  0  0  0  0  0  0  0  0
   10.4978    1.6423    0.0181 C   0  0  0  0  0  0  0  0  0  0  0  0
   11.9837    2.6136   -0.2354 S   0  0  1  0  0  0  0  0  0  0  0  0
   11.6466    3.4962   -1.6384 N   0  0  0  0  0  0  0  0  0  0  0  0
   12.0763    3.5760    0.8651 O   0  0  0  0  0  0  0  0  0  0  0  0
   13.0683    1.6872   -0.5687 O   0  0  0  0  0  0  0  0  0  0  0  0
    9.4670    2.1574    0.8066 C   0  0  0  0  0  0  0  0  0  0  0  0
    8.3124    1.4024    1.0052 C   0  0  0  0  0  0  0  0  0  0  0  0
    5.7006   -0.1001    0.6615 C   0  0  0  0  0  0  0  0  0  0  0  0
    5.4211    1.0731    0.5805 O   0  0  0  0  0  0  0  0  0  0  0  0
    2.3797    0.7851   -2.1434 H   0  0  0  0  0  0  0  0  0  0  0  0
    2.1278   -0.9481   -1.7898 H   0  0  0  0  0  0  0  0  0  0  0  0
    3.7694   -0.2500   -1.7511 H   0  0  0  0  0  0  0  0  0  0  0  0
    3.1490    1.1557    0.2275 H   0  0  0  0  0  0  0  0  0  0  0  0
    0.4189   -0.2945    0.1189 H   0  0  0  0  0  0  0  0  0  0  0  0
    0.6891    1.4169   -0.2903 H   0  0  0  0  0  0  0  0  0  0  0  0
    0.9509    0.8539    1.3794 H   0  0  0  0  0  0  0  0  0  0  0  0
    7.0290   -4.8256    1.0349 H   0  0  0  0  0  0  0  0  0  0  0  0
    5.7317   -7.1006    1.3997 H   0  0  0  0  0  0  0  0  0  0  0  0
    3.1254   -6.6925    1.6465 H   0  0  0  0  0  0  0  0  0  0  0  0
    9.1536   -1.3629   -0.8223 H   0  0  0  0  0  0  0  0  0  0  0  0
   11.2259   -0.0188   -1.1518 H   0  0  0  0  0  0  0  0  0  0  0  0
   11.6424    4.4942   -1.4283 H   0  0  0  0  0  0  0  0  0  0  0  0
   12.3242    3.2620   -2.3639 H   0  0  0  0  0  0  0  0  0  0  0  0
    9.5804    3.1346    1.2785 H   0  0  0  0  0  0  0  0  0  0  0  0
    7.5047    1.7971    1.6189 H   0  0  0  0  0  0  0  0  0  0  0  0
  1  2  1  0
  1 27  1  0
  1 28  1  0
  1 29  1  0
  2  3  1  0
  2  4  1  0
  2 30  1  1
  3 31  1  0
  3 32  1  0
  3 33  1  0
  4  5  2  0
  5  6  1  0
  5 25  1  0
  6  7  1  0
  6 12  2  0
  7  8  2  0
  7 11  1  0
  8  9  1  0
  8 34  1  0
  9 10  2  0
  9 35  1  0
 10 11  1  0
 10 36  1  0
 12 13  1  0
 12 14  1  0
 14 15  1  0
 14 25  1  0
 15 16  2  0
 15 24  1  0
 16 17  1  0
 16 37  1  0
 17 18  2  0
 17 38  1  0
 18 19  1  0
 18 23  1  0
 19 20  1  6
 19 21  2  0
 19 22  2  0
 20 39  1  0
 20 40  1  0
 23 24  2  0
 23 41  1  0
 24 42  1  0
 25 26  2  0
M  CHG  2   4   1  13  -1
M  END

