
     RDKit          3D

 44 45  0  0  0  0  0  0  0  0999 V2000
    0.3138   -0.9773    3.6448 C   0  0  0  0  0  0  0  0  0  0  0  0
    1.2895   -0.8591    2.7420 C   0  0  0  0  0  0  0  0  0  0  0  0
    2.7518   -0.8653    3.0717 C   0  0  0  0  0  0  0  0  0  0  0  0
    3.3965   -1.8307    2.2521 O   0  0  0  0  0  0  0  0  0  0  0  0
    4.7490   -1.9938    2.3306 C   0  0  0  0  0  0  0  0  0  0  0  0
    5.5756   -1.2504    3.1832 C   0  0  0  0  0  0  0  0  0  0  0  0
    6.9563   -1.4902    3.1983 C   0  0  0  0  0  0  0  0  0  0  0  0
    7.5121   -2.4653    2.3738 C   0  0  0  0  0  0  0  0  0  0  0  0
    6.6739   -3.2042    1.5278 C   0  0  0  0  0  0  0  0  0  0  0  0
    5.2941   -2.9915    1.4863 C   0  0  0  0  0  0  0  0  0  0  0  0
    4.3820   -3.7930    0.5670 C   0  0  0  0  0  0  0  0  0  0  0  0
    3.7134   -3.0517   -0.4985 N   0  0  0  0  0  0  0  0  0  0  0  0
    4.5645   -2.3570   -1.4712 C   0  0  1  0  0  0  0  0  0  0  0  0
    5.2650   -3.3634   -2.4002 C   0  0  0  0  0  0  0  0  0  0  0  0
    3.7088   -1.3939   -2.2549 C   0  0  0  0  0  0  0  0  0  0  0  0
    2.4399   -1.6973   -2.8718 C   0  0  0  0  0  0  0  0  0  0  0  0
    2.0187   -0.5580   -3.4950 C   0  0  0  0  0  0  0  0  0  0  0  0
    0.8135   -0.2090   -4.2955 C   0  0  0  0  0  0  0  0  0  0  0  0
    2.9413    0.4295   -3.3038 O   0  0  0  0  0  0  0  0  0  0  0  0
    3.9635   -0.0789   -2.5511 C   0  0  0  0  0  0  0  0  0  0  0  0
    5.0796    0.8557   -2.2374 C   0  0  0  0  0  0  0  0  0  0  0  0
   -0.7397   -0.9297    3.3567 H   0  0  0  0  0  0  0  0  0  0  0  0
    0.5296   -1.1222    4.7088 H   0  0  0  0  0  0  0  0  0  0  0  0
    1.0464   -0.7217    1.6816 H   0  0  0  0  0  0  0  0  0  0  0  0
    2.9117   -1.0938    4.1415 H   0  0  0  0  0  0  0  0  0  0  0  0
    3.1865    0.1351    2.8750 H   0  0  0  0  0  0  0  0  0  0  0  0
    5.1599   -0.4867    3.8405 H   0  0  0  0  0  0  0  0  0  0  0  0
    7.5922   -0.9037    3.8666 H   0  0  0  0  0  0  0  0  0  0  0  0
    8.5879   -2.6550    2.3856 H   0  0  0  0  0  0  0  0  0  0  0  0
    7.1032   -3.9764    0.8820 H   0  0  0  0  0  0  0  0  0  0  0  0
    3.5898   -4.2618    1.1738 H   0  0  0  0  0  0  0  0  0  0  0  0
    4.9659   -4.6174    0.1278 H   0  0  0  0  0  0  0  0  0  0  0  0
    3.0725   -2.3829   -0.0771 H   0  0  0  0  0  0  0  0  0  0  0  0
    5.3613   -1.7665   -0.9692 H   0  0  0  0  0  0  0  0  0  0  0  0
    4.5210   -3.9716   -2.9378 H   0  0  0  0  0  0  0  0  0  0  0  0
    5.9222   -4.0455   -1.8377 H   0  0  0  0  0  0  0  0  0  0  0  0
    5.8869   -2.8355   -3.1391 H   0  0  0  0  0  0  0  0  0  0  0  0
    1.9162   -2.6499   -2.8340 H   0  0  0  0  0  0  0  0  0  0  0  0
    0.1367   -1.0728   -4.3539 H   0  0  0  0  0  0  0  0  0  0  0  0
    1.0820    0.0882   -5.3239 H   0  0  0  0  0  0  0  0  0  0  0  0
    0.2604    0.6342   -3.8475 H   0  0  0  0  0  0  0  0  0  0  0  0
    4.7042    1.7822   -1.7711 H   0  0  0  0  0  0  0  0  0  0  0  0
    5.6326    1.1506   -3.1463 H   0  0  0  0  0  0  0  0  0  0  0  0
    5.7917    0.3858   -1.5453 H   0  0  0  0  0  0  0  0  0  0  0  0
  1  2  2  0
  1 22  1  0
  1 23  1  0
  2  3  1  0
  2 24  1  0
  3  4  1  0
  3 25  1  0
  3 26  1  0
  4  5  1  0
  5  6  2  0
  5 10  1  0
  6  7  1  0
  6 27  1  0
  7  8  2  0
  7 28  1  0
  8  9  1  0
  8 29  1  0
  9 10  2  0
  9 30  1  0
 10 11  1  0
 11 12  1  0
 11 31  1  0
 11 32  1  0
 12 13  1  0
 12 33  1  0
 13 14  1  0
 13 15  1  0
 13 34  1  1
 14 35  1  0
 14 36  1  0
 14 37  1  0
 15 16  1  0
 15 20  2  0
 16 17  2  0
 16 38  1  0
 17 18  1  0
 17 19  1  0
 18 39  1  0
 18 40  1  0
 18 41  1  0
 19 20  1  0
 20 21  1  0
 21 42  1  0
 21 43  1  0
 21 44  1  0
M  END

