
     RDKit          3D

 39 41  0  0  0  0  0  0  0  0999 V2000
    1.3449   -0.3883   -0.2837 C   0  0  0  0  0  0  0  0  0  0  0  0
    2.8142   -0.2629    0.1686 C   0  0  1  0  0  0  0  0  0  0  0  0
    2.9455   -1.0101    1.5167 C   0  0  0  0  0  0  0  0  0  0  0  0
    3.6893   -0.9205   -0.9242 C   0  0  0  0  0  0  0  0  0  0  0  0
    3.1883    1.2314    0.3374 C   0  0  0  0  0  0  0  0  0  0  0  0
    2.1979    2.0917    0.0676 N   0  0  0  0  0  0  0  0  0  0  0  0
    2.3823    3.4066    0.1708 C   0  0  0  0  0  0  0  0  0  0  0  0
    1.2226    4.3185   -0.1489 C   0  0  1  0  0  0  0  0  0  0  0  0
    0.6907    4.1908   -1.6051 C   0  0  0  0  0  0  0  0  0  0  0  0
   -0.7564    4.6136   -1.4835 C   0  0  0  0  0  0  0  0  0  0  0  0
   -1.6506    4.9966   -2.4845 C   0  0  0  0  0  0  0  0  0  0  0  0
   -2.9655    5.3293   -2.1339 C   0  0  0  0  0  0  0  0  0  0  0  0
   -3.3780    5.2750   -0.7974 C   0  0  0  0  0  0  0  0  0  0  0  0
   -2.4812    4.8873    0.2067 C   0  0  0  0  0  0  0  0  0  0  0  0
   -1.1703    4.5591   -0.1426 C   0  0  0  0  0  0  0  0  0  0  0  0
   -0.0334    4.0953    0.7406 C   0  0  0  0  0  0  0  0  0  0  0  0
    3.5348    3.9698    0.5393 N   0  0  0  0  0  0  0  0  0  0  0  0
    4.5409    3.1630    0.8161 C   0  0  0  0  0  0  0  0  0  0  0  0
    6.0164    3.9654    1.2902 Cl  0  0  0  0  0  0  0  0  0  0  0  0
    4.4483    1.7563    0.7391 C   0  0  0  0  0  0  0  0  0  0  0  0
    6.1844    0.6157    1.2288 I   0  0  0  0  0  0  0  0  0  0  0  0
    1.1008   -1.4561   -0.3994 H   0  0  0  0  0  0  0  0  0  0  0  0
    1.1673    0.1142   -1.2442 H   0  0  0  0  0  0  0  0  0  0  0  0
    0.6519    0.0486    0.4481 H   0  0  0  0  0  0  0  0  0  0  0  0
    2.6168   -2.0536    1.3877 H   0  0  0  0  0  0  0  0  0  0  0  0
    2.3008   -0.5489    2.2818 H   0  0  0  0  0  0  0  0  0  0  0  0
    3.9727   -1.0308    1.9014 H   0  0  0  0  0  0  0  0  0  0  0  0
    3.3669   -1.9639   -1.0694 H   0  0  0  0  0  0  0  0  0  0  0  0
    4.7571   -0.9352   -0.6726 H   0  0  0  0  0  0  0  0  0  0  0  0
    3.5698   -0.3970   -1.8862 H   0  0  0  0  0  0  0  0  0  0  0  0
    1.5806    5.3470    0.0030 H   0  0  0  0  0  0  0  0  0  0  0  0
    0.7563    3.1404   -1.9408 H   0  0  0  0  0  0  0  0  0  0  0  0
    1.2709    4.7993   -2.3169 H   0  0  0  0  0  0  0  0  0  0  0  0
   -1.3311    5.0437   -3.5295 H   0  0  0  0  0  0  0  0  0  0  0  0
   -3.6724    5.6389   -2.9082 H   0  0  0  0  0  0  0  0  0  0  0  0
   -4.4049    5.5425   -0.5348 H   0  0  0  0  0  0  0  0  0  0  0  0
   -2.8064    4.8495    1.2503 H   0  0  0  0  0  0  0  0  0  0  0  0
   -0.1439    3.0218    0.9761 H   0  0  0  0  0  0  0  0  0  0  0  0
    0.0312    4.6360    1.6982 H   0  0  0  0  0  0  0  0  0  0  0  0
  2  1  1  6
  1 22  1  0
  1 23  1  0
  1 24  1  0
  2  3  1  0
  2  4  1  0
  2  5  1  0
  3 25  1  0
  3 26  1  0
  3 27  1  0
  4 28  1  0
  4 29  1  0
  4 30  1  0
  5  6  2  0
  5 20  1  0
  6  7  1  0
  7  8  1  0
  7 17  2  0
  8  9  1  0
  8 16  1  0
  8 31  1  6
  9 10  1  0
  9 32  1  0
  9 33  1  0
 10 11  1  0
 10 15  2  0
 11 12  2  0
 11 34  1  0
 12 13  1  0
 12 35  1  0
 13 14  2  0
 13 36  1  0
 14 15  1  0
 14 37  1  0
 15 16  1  0
 16 38  1  0
 16 39  1  0
 17 18  1  0
 18 19  1  0
 18 20  2  0
 20 21  1  0
M  END

