
     RDKit          3D

 59 62  0  0  0  0  0  0  0  0999 V2000
    2.1303   -0.5114    0.7825 C   0  0  0  0  0  0  0  0  0  0  0  0
    2.9218   -0.0112   -0.2736 O   0  0  0  0  0  0  0  0  0  0  0  0
    3.1917   -0.8129   -1.3313 C   0  0  0  0  0  0  0  0  0  0  0  0
    2.7596   -2.1191   -1.4830 C   0  0  0  0  0  0  0  0  0  0  0  0
    3.1168   -2.9289   -2.5890 C   0  0  0  0  0  0  0  0  0  0  0  0
    3.9228   -2.4014   -3.6260 C   0  0  0  0  0  0  0  0  0  0  0  0
    4.2894   -1.0121   -3.4876 C   0  0  0  0  0  0  0  0  0  0  0  0
    4.9784   -0.4006   -4.4938 O   0  0  0  0  0  0  0  0  0  0  0  0
    4.5387    0.8656   -4.9747 C   0  0  0  0  0  0  0  0  0  0  0  0
    3.9845   -0.2532   -2.3521 C   0  0  0  0  0  0  0  0  0  0  0  0
    4.4255    1.0380   -2.2497 O   0  0  0  0  0  0  0  0  0  0  0  0
    5.5222    1.2408   -1.3670 C   0  0  0  0  0  0  0  0  0  0  0  0
    4.5190   -3.0990   -4.8856 C   0  0  1  0  0  0  0  0  0  0  0  0
    4.0556   -2.3777   -6.2238 C   0  0  0  0  0  0  0  0  0  0  0  0
    5.3586   -1.9832   -6.9326 C   0  0  0  0  0  0  0  0  0  0  0  0
    6.4213   -2.8099   -6.1741 C   0  0  1  0  0  0  0  0  0  0  0  0
    7.7310   -2.3920   -6.2055 O   0  0  0  0  0  0  0  0  0  0  0  0
    8.0252   -1.0957   -5.7125 C   0  0  0  0  0  0  0  0  0  0  0  0
    5.9398   -2.8644   -4.8268 O   0  0  0  0  0  0  0  0  0  0  0  0
    6.3801   -4.2455   -6.7463 C   0  0  0  0  0  0  0  0  0  0  0  0
    6.8698   -4.5426   -7.8077 O   0  0  0  0  0  0  0  0  0  0  0  0
    5.6513   -5.2038   -5.8393 C   0  0  0  0  0  0  0  0  0  0  0  0
    4.3777   -4.6613   -5.1347 C   0  0  1  0  0  0  0  0  0  0  0  0
    4.0688   -5.6131   -3.9667 C   0  0  1  0  0  0  0  0  0  0  0  0
    5.0846   -5.5511   -2.9253 N   0  0  0  0  0  0  0  0  0  0  0  0
    5.5723   -6.5681   -2.1382 C   0  0  0  0  0  0  0  0  0  0  0  0
    5.1148   -7.9824   -2.4689 C   0  0  0  0  0  0  0  0  0  0  0  0
    6.3502   -6.3407   -1.2288 O   0  0  0  0  0  0  0  0  0  0  0  0
    2.6361   -5.4016   -3.4604 C   0  0  0  0  0  0  0  0  0  0  0  0
    2.5256   -4.3262   -2.3999 C   0  0  0  0  0  0  0  0  0  0  0  0
    2.0432    0.2995    1.5178 H   0  0  0  0  0  0  0  0  0  0  0  0
    2.5975   -1.3875    1.2666 H   0  0  0  0  0  0  0  0  0  0  0  0
    1.1191   -0.7919    0.4376 H   0  0  0  0  0  0  0  0  0  0  0  0
    2.1357   -2.5688   -0.7110 H   0  0  0  0  0  0  0  0  0  0  0  0
    4.7333    0.8786   -6.0593 H   0  0  0  0  0  0  0  0  0  0  0  0
    5.0797    1.6930   -4.4964 H   0  0  0  0  0  0  0  0  0  0  0  0
    3.4602    1.0111   -4.8038 H   0  0  0  0  0  0  0  0  0  0  0  0
    5.7878    2.3058   -1.4301 H   0  0  0  0  0  0  0  0  0  0  0  0
    6.3945    0.6322   -1.6647 H   0  0  0  0  0  0  0  0  0  0  0  0
    5.2491    1.0005   -0.3267 H   0  0  0  0  0  0  0  0  0  0  0  0
    3.4192   -1.5118   -6.0128 H   0  0  0  0  0  0  0  0  0  0  0  0
    3.4553   -3.0669   -6.8348 H   0  0  0  0  0  0  0  0  0  0  0  0
    5.5764   -0.9163   -6.8192 H   0  0  0  0  0  0  0  0  0  0  0  0
    5.3763   -2.2286   -8.0036 H   0  0  0  0  0  0  0  0  0  0  0  0
    9.1181   -1.0463   -5.6091 H   0  0  0  0  0  0  0  0  0  0  0  0
    7.5501   -0.9149   -4.7370 H   0  0  0  0  0  0  0  0  0  0  0  0
    7.7075   -0.3053   -6.4169 H   0  0  0  0  0  0  0  0  0  0  0  0
    6.3812   -5.4546   -5.0484 H   0  0  0  0  0  0  0  0  0  0  0  0
    5.4323   -6.1257   -6.3972 H   0  0  0  0  0  0  0  0  0  0  0  0
    3.5310   -4.7951   -5.8228 H   0  0  0  0  0  0  0  0  0  0  0  0
    4.1173   -6.6211   -4.4062 H   0  0  0  0  0  0  0  0  0  0  0  0
    5.4323   -4.6325   -2.6580 H   0  0  0  0  0  0  0  0  0  0  0  0
    4.0188   -8.0836   -2.4323 H   0  0  0  0  0  0  0  0  0  0  0  0
    5.5641   -8.6584   -1.7317 H   0  0  0  0  0  0  0  0  0  0  0  0
    5.4443   -8.2828   -3.4767 H   0  0  0  0  0  0  0  0  0  0  0  0
    2.2514   -6.3372   -3.0208 H   0  0  0  0  0  0  0  0  0  0  0  0
    1.9854   -5.1825   -4.3234 H   0  0  0  0  0  0  0  0  0  0  0  0
    2.9766   -4.7244   -1.4754 H   0  0  0  0  0  0  0  0  0  0  0  0
    1.4574   -4.1917   -2.1616 H   0  0  0  0  0  0  0  0  0  0  0  0
  1  2  1  0
  1 31  1  0
  1 32  1  0
  1 33  1  0
  2  3  1  0
  3  4  2  0
  3 10  1  0
  4  5  1  0
  4 34  1  0
  5  6  2  0
  5 30  1  0
  6  7  1  0
  6 13  1  0
  7  8  1  0
  7 10  2  0
  8  9  1  0
  9 35  1  0
  9 36  1  0
  9 37  1  0
 10 11  1  0
 11 12  1  0
 12 38  1  0
 12 39  1  0
 12 40  1  0
 13 14  1  6
 13 19  1  0
 13 23  1  0
 14 15  1  0
 14 41  1  0
 14 42  1  0
 15 16  1  0
 15 43  1  0
 15 44  1  0
 16 17  1  1
 16 19  1  0
 16 20  1  0
 17 18  1  0
 18 45  1  0
 18 46  1  0
 18 47  1  0
 20 21  2  0
 20 22  1  0
 22 23  1  0
 22 48  1  0
 22 49  1  0
 23 24  1  0
 23 50  1  6
 24 25  1  0
 24 29  1  0
 24 51  1  6
 25 26  1  0
 25 52  1  0
 26 27  1  0
 26 28  2  0
 27 53  1  0
 27 54  1  0
 27 55  1  0
 29 30  1  0
 29 56  1  0
 29 57  1  0
 30 58  1  0
 30 59  1  0
M  END

