
     RDKit          3D

 57 63  0  0  0  0  0  0  0  0999 V2000
    1.3254   -0.7351    0.6735 C   0  0  0  0  0  0  0  0  0  0  0  0
    2.6549   -1.2071    1.2861 C   0  0  0  0  0  0  0  0  0  0  0  0
    3.4728   -2.0825    0.3753 C   0  0  0  0  0  0  0  0  0  0  0  0
    4.4582   -1.6589   -0.5315 C   0  0  0  0  0  0  0  0  0  0  0  0
    4.9272   -0.2539   -0.7557 C   0  0  0  0  0  0  0  0  0  0  0  0
    4.9471   -2.8264   -1.1787 C   0  0  0  0  0  0  0  0  0  0  0  0
    5.9803   -2.9708   -2.1191 C   0  0  0  0  0  0  0  0  0  0  0  0
    6.3988   -4.2201   -2.5524 C   0  0  0  0  0  0  0  0  0  0  0  0
    7.5503   -4.6881   -3.2821 C   0  0  0  0  0  0  0  0  0  0  0  0
    8.5715   -4.0198   -3.9780 C   0  0  0  0  0  0  0  0  0  0  0  0
    9.5921   -4.7725   -4.5473 C   0  0  0  0  0  0  0  0  0  0  0  0
    9.6194   -6.1789   -4.4182 C   0  0  0  0  0  0  0  0  0  0  0  0
    8.6215   -6.8549   -3.7257 C   0  0  0  0  0  0  0  0  0  0  0  0
    7.5647   -6.1147   -3.1608 C   0  0  0  0  0  0  0  0  0  0  0  0
    6.3985   -6.4724   -2.3754 C   0  0  0  0  0  0  0  0  0  0  0  0
    5.7385   -5.3433   -2.0813 N   0  0  0  0  0  0  0  0  0  0  0  0
    4.3741   -5.3482   -1.3277 B   0  0  1  0  0  0  0  0  0  0  0  0
    3.1311   -5.6009   -2.3598 C   0  0  0  0  0  0  0  0  0  0  0  0
    2.1370   -6.5643   -2.1185 C   0  0  0  0  0  0  0  0  0  0  0  0
    1.0761   -6.7227   -3.0179 C   0  0  0  0  0  0  0  0  0  0  0  0
    0.9350   -5.9993   -4.1305 N   0  0  0  0  0  0  0  0  0  0  0  0
    1.8743   -5.0797   -4.3754 C   0  0  0  0  0  0  0  0  0  0  0  0
    2.9676   -4.8480   -3.5372 C   0  0  0  0  0  0  0  0  0  0  0  0
    4.4784   -6.4210   -0.3211 O   0  0  0  0  0  0  0  0  0  0  0  0
    5.0177   -7.5933   -0.6783 C   0  0  0  0  0  0  0  0  0  0  0  0
    4.6925   -8.7416    0.0644 C   0  0  0  0  0  0  0  0  0  0  0  0
    5.2008   -9.9860   -0.2958 C   0  0  0  0  0  0  0  0  0  0  0  0
    6.0536  -10.1171   -1.4033 C   0  0  0  0  0  0  0  0  0  0  0  0
    6.4183   -8.9854   -2.1227 C   0  0  0  0  0  0  0  0  0  0  0  0
    5.9341   -7.7072   -1.7722 C   0  0  0  0  0  0  0  0  0  0  0  0
    4.2606   -3.9356   -0.6723 N   0  0  0  0  0  0  0  0  0  0  0  0
    3.3703   -3.4921    0.2480 C   0  0  0  0  0  0  0  0  0  0  0  0
    2.4516   -4.4148    0.9789 C   0  0  0  0  0  0  0  0  0  0  0  0
    0.7725   -0.0880    1.3740 H   0  0  0  0  0  0  0  0  0  0  0  0
    0.6781   -1.5894    0.4188 H   0  0  0  0  0  0  0  0  0  0  0  0
    1.4932   -0.1645   -0.2539 H   0  0  0  0  0  0  0  0  0  0  0  0
    2.4480   -1.7407    2.2293 H   0  0  0  0  0  0  0  0  0  0  0  0
    3.2528   -0.3250    1.5716 H   0  0  0  0  0  0  0  0  0  0  0  0
    5.2516    0.2177    0.1874 H   0  0  0  0  0  0  0  0  0  0  0  0
    4.1239    0.3805   -1.1675 H   0  0  0  0  0  0  0  0  0  0  0  0
    5.7736   -0.2043   -1.4557 H   0  0  0  0  0  0  0  0  0  0  0  0
    6.5074   -2.0803   -2.4647 H   0  0  0  0  0  0  0  0  0  0  0  0
    8.5653   -2.9312   -4.0734 H   0  0  0  0  0  0  0  0  0  0  0  0
   10.3906   -4.2703   -5.0992 H   0  0  0  0  0  0  0  0  0  0  0  0
   10.4409   -6.7425   -4.8666 H   0  0  0  0  0  0  0  0  0  0  0  0
    8.6732   -7.9389   -3.6238 H   0  0  0  0  0  0  0  0  0  0  0  0
    2.1849   -7.1996   -1.2305 H   0  0  0  0  0  0  0  0  0  0  0  0
    0.3025   -7.4775   -2.8252 H   0  0  0  0  0  0  0  0  0  0  0  0
    1.7517   -4.4909   -5.2936 H   0  0  0  0  0  0  0  0  0  0  0  0
    3.6904   -4.0748   -3.8137 H   0  0  0  0  0  0  0  0  0  0  0  0
    4.0158   -8.6282    0.9137 H   0  0  0  0  0  0  0  0  0  0  0  0
    4.9196  -10.8694    0.2833 H   0  0  0  0  0  0  0  0  0  0  0  0
    6.4315  -11.0987   -1.6964 H   0  0  0  0  0  0  0  0  0  0  0  0
    7.0806   -9.0867   -2.9827 H   0  0  0  0  0  0  0  0  0  0  0  0
    3.0116   -5.2324    1.4566 H   0  0  0  0  0  0  0  0  0  0  0  0
    1.7336   -4.8856    0.2865 H   0  0  0  0  0  0  0  0  0  0  0  0
    1.8814   -3.8747    1.7461 H   0  0  0  0  0  0  0  0  0  0  0  0
  1  2  1  0
  1 34  1  0
  1 35  1  0
  1 36  1  0
  2  3  1  0
  2 37  1  0
  2 38  1  0
  3  4  2  0
  3 32  1  0
  4  5  1  0
  4  6  1  0
  5 39  1  0
  5 40  1  0
  5 41  1  0
  6  7  2  0
  6 31  1  0
  7  8  1  0
  7 42  1  0
  8  9  2  0
  8 16  1  0
  9 10  1  0
  9 14  1  0
 10 11  2  0
 10 43  1  0
 11 12  1  0
 11 44  1  0
 12 13  2  0
 12 45  1  0
 13 14  1  0
 13 46  1  0
 14 15  2  0
 15 16  1  0
 15 30  1  0
 16 17  1  0
 17 18  1  6
 17 24  1  0
 17 31  1  0
 18 19  2  0
 18 23  1  0
 19 20  1  0
 19 47  1  0
 20 21  2  0
 20 48  1  0
 21 22  1  0
 22 23  2  0
 22 49  1  0
 23 50  1  0
 24 25  1  0
 25 26  1  0
 25 30  2  0
 26 27  2  0
 26 51  1  0
 27 28  1  0
 27 52  1  0
 28 29  2  0
 28 53  1  0
 29 30  1  0
 29 54  1  0
 31 32  2  0
 32 33  1  0
 33 55  1  0
 33 56  1  0
 33 57  1  0
M  CHG  2  17  -1  31   1
M  END

