
     RDKit          3D

 43 44  0  0  0  0  0  0  0  0999 V2000
    6.6335    1.3305   -2.9030 C   0  0  0  0  0  0  0  0  0  0  0  0
    6.0708    0.2331   -2.1517 N   0  0  0  0  0  0  0  0  0  0  0  0
    5.1390    0.3960   -1.1767 C   0  0  0  0  0  0  0  0  0  0  0  0
    4.6841    1.4691   -0.8164 O   0  0  0  0  0  0  0  0  0  0  0  0
    4.6385   -0.9226   -0.5613 C   0  0  0  0  0  0  0  0  0  0  0  0
    5.5265   -2.0581   -0.7746 N   0  0  0  0  0  0  0  0  0  0  0  0
    6.6432   -2.1290    0.1726 C   0  0  0  0  0  0  0  0  0  0  0  0
    6.2550   -2.7121    1.5448 C   0  0  0  0  0  0  0  0  0  0  0  0
    5.5479   -4.0717    1.4182 C   0  0  2  0  0  0  0  0  0  0  0  0
    6.5096   -5.1160    1.0596 N   0  0  0  0  0  0  0  0  0  0  0  0
    6.2757   -6.4376    1.3178 C   0  0  0  0  0  0  0  0  0  0  0  0
    5.2499   -6.8238    1.8575 O   0  0  0  0  0  0  0  0  0  0  0  0
    7.3663   -7.4034    0.8578 C   0  0  0  0  0  0  0  0  0  0  0  0
    7.4698   -8.6353    1.7437 C   0  0  1  0  0  0  0  0  0  0  0  0
    6.3304   -9.6839    1.7394 C   0  0  0  0  0  0  0  0  0  0  0  0
    7.3553  -10.7462    1.7652 N   0  0  0  0  0  0  0  0  0  0  0  0
    8.3838   -9.8042    1.2944 C   0  0  0  0  0  0  0  0  0  0  0  0
    4.3942   -3.9701    0.3979 C   0  0  0  0  0  0  0  0  0  0  0  0
    4.8740   -3.3630   -0.9271 C   0  0  0  0  0  0  0  0  0  0  0  0
    6.3746    1.2695   -3.9746 H   0  0  0  0  0  0  0  0  0  0  0  0
    7.7331    1.3621   -2.8157 H   0  0  0  0  0  0  0  0  0  0  0  0
    6.2189    2.2629   -2.4958 H   0  0  0  0  0  0  0  0  0  0  0  0
    6.3336   -0.7313   -2.3383 H   0  0  0  0  0  0  0  0  0  0  0  0
    3.6673   -1.1316   -1.0400 H   0  0  0  0  0  0  0  0  0  0  0  0
    4.4113   -0.6965    0.4982 H   0  0  0  0  0  0  0  0  0  0  0  0
    7.0742   -1.1229    0.2928 H   0  0  0  0  0  0  0  0  0  0  0  0
    7.4403   -2.7444   -0.2868 H   0  0  0  0  0  0  0  0  0  0  0  0
    5.5708   -2.0164    2.0572 H   0  0  0  0  0  0  0  0  0  0  0  0
    7.1470   -2.8023    2.1877 H   0  0  0  0  0  0  0  0  0  0  0  0
    5.1243   -4.3677    2.3902 H   0  0  0  0  0  0  0  0  0  0  0  0
    7.3867   -4.8544    0.6273 H   0  0  0  0  0  0  0  0  0  0  0  0
    8.3419   -6.8884    0.8019 H   0  0  0  0  0  0  0  0  0  0  0  0
    7.1170   -7.7073   -0.1760 H   0  0  0  0  0  0  0  0  0  0  0  0
    7.7059   -8.3367    2.7771 H   0  0  0  0  0  0  0  0  0  0  0  0
    5.7357   -9.6325    0.8052 H   0  0  0  0  0  0  0  0  0  0  0  0
    5.6307   -9.6751    2.5898 H   0  0  0  0  0  0  0  0  0  0  0  0
    7.1839  -11.5611    1.1783 H   0  0  0  0  0  0  0  0  0  0  0  0
    8.5407   -9.7960    0.1947 H   0  0  0  0  0  0  0  0  0  0  0  0
    9.3714   -9.9011    1.7799 H   0  0  0  0  0  0  0  0  0  0  0  0
    3.5972   -3.3411    0.8315 H   0  0  0  0  0  0  0  0  0  0  0  0
    3.9593   -4.9693    0.2415 H   0  0  0  0  0  0  0  0  0  0  0  0
    4.0385   -3.2607   -1.6374 H   0  0  0  0  0  0  0  0  0  0  0  0
    5.6002   -4.0516   -1.3965 H   0  0  0  0  0  0  0  0  0  0  0  0
  1  2  1  0
  1 20  1  0
  1 21  1  0
  1 22  1  0
  2  3  1  0
  2 23  1  0
  3  4  2  0
  3  5  1  0
  5  6  1  0
  5 24  1  0
  5 25  1  0
  6  7  1  0
  6 19  1  0
  7  8  1  0
  7 26  1  0
  7 27  1  0
  8  9  1  0
  8 28  1  0
  8 29  1  0
  9 10  1  0
  9 18  1  0
  9 30  1  1
 10 11  1  0
 10 31  1  0
 11 12  2  0
 11 13  1  0
 13 14  1  0
 13 32  1  0
 13 33  1  0
 14 15  1  0
 14 17  1  0
 14 34  1  1
 15 16  1  0
 15 35  1  0
 15 36  1  0
 16 17  1  0
 16 37  1  0
 17 38  1  0
 17 39  1  0
 18 19  1  0
 18 40  1  0
 18 41  1  0
 19 42  1  0
 19 43  1  0
M  END

