
     RDKit          3D

 35 37  0  0  0  0  0  0  0  0999 V2000
    1.3229   -0.3099    0.1854 C   0  0  0  0  0  0  0  0  0  0  0  0
    2.8001   -0.0841   -0.1747 C   0  0  1  0  0  0  0  0  0  0  0  0
    3.0273   -0.1662   -1.6844 C   0  0  0  0  0  0  0  0  0  0  0  0
    3.2815    1.2348    0.3841 C   0  0  0  0  0  0  0  0  0  0  0  0
    3.8556    1.3334    1.5992 C   0  0  0  0  0  0  0  0  0  0  0  0
    4.2933    2.6647    2.0961 C   0  0  0  0  0  0  0  0  0  0  0  0
    5.2745    3.4336    1.4738 C   0  0  0  0  0  0  0  0  0  0  0  0
    5.6338    4.6976    1.9417 C   0  0  0  0  0  0  0  0  0  0  0  0
    4.9644    5.1737    3.0724 C   0  0  0  0  0  0  0  0  0  0  0  0
    5.3420    6.7364    3.7357 Cl  0  0  0  0  0  0  0  0  0  0  0  0
    3.9861    4.4096    3.6908 C   0  0  0  0  0  0  0  0  0  0  0  0
    3.6403    3.1691    3.2113 N   0  0  0  0  0  0  0  0  0  0  0  0
    2.7325    2.5024    3.7831 O   0  0  0  0  0  0  0  0  0  0  0  0
    4.1276    0.0974    2.3585 C   0  0  0  0  0  0  0  0  0  0  0  0
    4.5878    0.0683    3.6795 C   0  0  0  0  0  0  0  0  0  0  0  0
    4.9229   -1.1445    4.3044 C   0  0  0  0  0  0  0  0  0  0  0  0
    5.3948   -1.1517    5.6594 C   0  0  0  0  0  0  0  0  0  0  0  0
    5.7843   -1.1615    6.7539 N   0  0  0  0  0  0  0  0  0  0  0  0
    4.7973   -2.3526    3.5883 C   0  0  0  0  0  0  0  0  0  0  0  0
    4.3332   -2.3406    2.2792 C   0  0  0  0  0  0  0  0  0  0  0  0
    3.9866   -1.1282    1.6653 C   0  0  0  0  0  0  0  0  0  0  0  0
    3.5776   -1.1775    0.3806 O   0  0  0  0  0  0  0  0  0  0  0  0
    0.6950    0.4854   -0.2450 H   0  0  0  0  0  0  0  0  0  0  0  0
    1.1842   -0.2979    1.2768 H   0  0  0  0  0  0  0  0  0  0  0  0
    0.9819   -1.2804   -0.2076 H   0  0  0  0  0  0  0  0  0  0  0  0
    2.4364    0.6029   -2.2045 H   0  0  0  0  0  0  0  0  0  0  0  0
    2.7215   -1.1548   -2.0576 H   0  0  0  0  0  0  0  0  0  0  0  0
    4.0908   -0.0176   -1.9232 H   0  0  0  0  0  0  0  0  0  0  0  0
    3.0856    2.1299   -0.2125 H   0  0  0  0  0  0  0  0  0  0  0  0
    5.7730    3.0082    0.6013 H   0  0  0  0  0  0  0  0  0  0  0  0
    6.4064    5.2930    1.4557 H   0  0  0  0  0  0  0  0  0  0  0  0
    3.4226    4.7216    4.5681 H   0  0  0  0  0  0  0  0  0  0  0  0
    4.6728    0.9959    4.2433 H   0  0  0  0  0  0  0  0  0  0  0  0
    5.0596   -3.2966    4.0695 H   0  0  0  0  0  0  0  0  0  0  0  0
    4.2252   -3.2624    1.7052 H   0  0  0  0  0  0  0  0  0  0  0  0
  2  1  1  6
  1 23  1  0
  1 24  1  0
  1 25  1  0
  2  3  1  0
  2  4  1  0
  2 22  1  0
  3 26  1  0
  3 27  1  0
  3 28  1  0
  4  5  2  0
  4 29  1  0
  5  6  1  0
  5 14  1  0
  6  7  2  0
  6 12  1  0
  7  8  1  0
  7 30  1  0
  8  9  2  0
  8 31  1  0
  9 10  1  0
  9 11  1  0
 11 12  2  0
 11 32  1  0
 12 13  1  0
 14 15  1  0
 14 21  2  0
 15 16  2  0
 15 33  1  0
 16 17  1  0
 16 19  1  0
 17 18  3  0
 19 20  2  0
 19 34  1  0
 20 21  1  0
 20 35  1  0
 21 22  1  0
M  CHG  2  12   1  13  -1
M  END

