
     RDKit          3D

 26 27  0  0  0  0  0  0  0  0999 V2000
    0.9767   -0.0566   -0.0728 C   0  0  0  0  0  0  0  0  0  0  0  0
    2.4621   -0.0630    0.1360 C   0  0  0  0  0  0  0  0  0  0  0  0
    3.0656    1.0584    0.4622 N   0  0  0  0  0  0  0  0  0  0  0  0
    4.7217    0.8092    0.6144 S   0  0  0  0  0  0  0  0  0  0  0  0
    4.6376   -0.8937    0.2624 C   0  0  0  0  0  0  0  0  0  0  0  0
    5.7413   -1.7219    0.2372 N   0  0  0  0  0  0  0  0  0  0  0  0
    7.0812   -1.1894    0.4844 C   0  0  0  0  0  0  0  0  0  0  0  0
    8.1037   -2.2801    0.5803 C   0  0  0  0  0  0  0  0  0  0  0  0
    9.2308   -2.4547   -0.1859 C   0  0  0  0  0  0  0  0  0  0  0  0
   10.0039   -3.5979    0.1815 C   0  0  0  0  0  0  0  0  0  0  0  0
    9.4393   -4.2814    1.2279 C   0  0  0  0  0  0  0  0  0  0  0  0
   10.0846   -5.8489    2.0394 Br  0  0  0  0  0  0  0  0  0  0  0  0
    7.9667   -3.5418    1.7831 S   0  0  0  0  0  0  0  0  0  0  0  0
    3.3057   -1.2327    0.0260 C   0  0  0  0  0  0  0  0  0  0  0  0
    2.7997   -2.5963   -0.2681 C   0  0  0  0  0  0  0  0  0  0  0  0
    1.7363   -2.8301   -0.7821 O   0  0  0  0  0  0  0  0  0  0  0  0
    3.6240   -3.6232    0.0808 O   0  0  0  0  0  0  0  0  0  0  0  0
    0.5865    0.9503    0.1249 H   0  0  0  0  0  0  0  0  0  0  0  0
    0.4815   -0.7838    0.5888 H   0  0  0  0  0  0  0  0  0  0  0  0
    0.7305   -0.3609   -1.1008 H   0  0  0  0  0  0  0  0  0  0  0  0
    5.7136   -2.4408   -0.4845 H   0  0  0  0  0  0  0  0  0  0  0  0
    7.0374   -0.6081    1.4225 H   0  0  0  0  0  0  0  0  0  0  0  0
    7.3979   -0.4863   -0.3104 H   0  0  0  0  0  0  0  0  0  0  0  0
    9.5061   -1.7770   -0.9966 H   0  0  0  0  0  0  0  0  0  0  0  0
   10.9284   -3.9038   -0.3079 H   0  0  0  0  0  0  0  0  0  0  0  0
    4.3318   -3.3103    0.6681 H   0  0  0  0  0  0  0  0  0  0  0  0
  1  2  1  0
  1 18  1  0
  1 19  1  0
  1 20  1  0
  2  3  2  0
  2 14  1  0
  3  4  1  0
  4  5  2  0
  5  6  1  0
  5 14  1  0
  6  7  1  0
  6 21  1  0
  7  8  1  0
  7 22  1  0
  7 23  1  0
  8  9  2  0
  8 13  1  0
  9 10  1  0
  9 24  1  0
 10 11  2  0
 10 25  1  0
 11 12  1  0
 11 13  1  0
 14 15  2  0
 15 16  1  0
 15 17  1  0
 17 26  1  0
M  CHG  2   4   1  16  -1
M  END

