
     RDKit          3D

 36 36  0  0  0  0  0  0  0  0999 V2000
    0.9520    0.1883    0.3115 C   0  0  0  0  0  0  0  0  0  0  0  0
    2.4247    0.1519   -0.0495 C   0  0  0  0  0  0  0  0  0  0  0  0
    2.9152   -1.1520    0.2185 O   0  0  0  0  0  0  0  0  0  0  0  0
    4.2307   -1.4295    0.0147 C   0  0  0  0  0  0  0  0  0  0  0  0
    5.1662   -0.5237   -0.5008 C   0  0  0  0  0  0  0  0  0  0  0  0
    6.5099   -0.8911   -0.6452 C   0  0  0  0  0  0  0  0  0  0  0  0
    6.9591   -2.1643   -0.2811 C   0  0  0  0  0  0  0  0  0  0  0  0
    8.4036   -2.5739   -0.4671 C   0  0  0  0  0  0  0  0  0  0  0  0
    8.6746   -3.2430   -1.8356 C   0  0  0  0  0  0  0  0  0  0  0  0
   10.1088   -3.6705   -2.0186 C   0  0  0  0  0  0  0  0  0  0  0  0
   10.6813   -4.7960   -1.1968 C   0  0  0  0  0  0  0  0  0  0  0  0
   10.7931   -3.0196   -2.8858 N   0  0  0  0  0  0  0  0  0  0  0  0
   12.1086   -3.4752   -2.9646 O   0  0  0  0  0  0  0  0  0  0  0  0
    6.0113   -3.0702    0.2245 C   0  0  0  0  0  0  0  0  0  0  0  0
    4.6679   -2.7288    0.3768 C   0  0  0  0  0  0  0  0  0  0  0  0
    3.8193   -3.6400    0.9401 O   0  0  0  0  0  0  0  0  0  0  0  0
    2.7748   -4.1496    0.1263 C   0  0  0  0  0  0  0  0  0  0  0  0
    0.5418    1.1941    0.1315 H   0  0  0  0  0  0  0  0  0  0  0  0
    0.8064   -0.0634    1.3730 H   0  0  0  0  0  0  0  0  0  0  0  0
    0.3813   -0.5318   -0.2949 H   0  0  0  0  0  0  0  0  0  0  0  0
    2.9910    0.8947    0.5434 H   0  0  0  0  0  0  0  0  0  0  0  0
    2.5724    0.4017   -1.1176 H   0  0  0  0  0  0  0  0  0  0  0  0
    4.8590    0.4834   -0.7831 H   0  0  0  0  0  0  0  0  0  0  0  0
    7.2186   -0.1590   -1.0427 H   0  0  0  0  0  0  0  0  0  0  0  0
    8.6960   -3.2628    0.3433 H   0  0  0  0  0  0  0  0  0  0  0  0
    9.0560   -1.6898   -0.3783 H   0  0  0  0  0  0  0  0  0  0  0  0
    8.4147   -2.5438   -2.6442 H   0  0  0  0  0  0  0  0  0  0  0  0
    8.0164   -4.1246   -1.9384 H   0  0  0  0  0  0  0  0  0  0  0  0
    9.9094   -5.2915   -0.5917 H   0  0  0  0  0  0  0  0  0  0  0  0
   11.4738   -4.4240   -0.5263 H   0  0  0  0  0  0  0  0  0  0  0  0
   11.1602   -5.5392   -1.8536 H   0  0  0  0  0  0  0  0  0  0  0  0
   12.4837   -2.9183   -3.6585 H   0  0  0  0  0  0  0  0  0  0  0  0
    6.3054   -4.0769    0.5333 H   0  0  0  0  0  0  0  0  0  0  0  0
    2.2448   -4.9014    0.7284 H   0  0  0  0  0  0  0  0  0  0  0  0
    3.1776   -4.6400   -0.7795 H   0  0  0  0  0  0  0  0  0  0  0  0
    2.0658   -3.3626   -0.1749 H   0  0  0  0  0  0  0  0  0  0  0  0
  1  2  1  0
  1 18  1  0
  1 19  1  0
  1 20  1  0
  2  3  1  0
  2 21  1  0
  2 22  1  0
  3  4  1  0
  4  5  2  0
  4 15  1  0
  5  6  1  0
  5 23  1  0
  6  7  2  0
  6 24  1  0
  7  8  1  0
  7 14  1  0
  8  9  1  0
  8 25  1  0
  8 26  1  0
  9 10  1  0
  9 27  1  0
  9 28  1  0
 10 11  1  0
 10 12  2  0
 11 29  1  0
 11 30  1  0
 11 31  1  0
 12 13  1  0
 13 32  1  0
 14 15  2  0
 14 33  1  0
 15 16  1  0
 16 17  1  0
 17 34  1  0
 17 35  1  0
 17 36  1  0
M  END

