
     RDKit          3D

 27 28  0  0  0  0  0  0  0  0999 V2000
    2.7870    1.5333    0.5743 C   0  0  0  0  0  0  0  0  0  0  0  0
    2.4069    0.3766    1.4981 C   0  0  0  0  0  0  0  0  0  0  0  0
    3.0657   -0.9697    1.1197 C   0  0  0  0  0  0  0  0  0  0  0  0
    4.5677   -0.9896    1.2167 C   0  0  0  0  0  0  0  0  0  0  0  0
    5.3179   -0.8536    0.1046 N   0  0  0  0  0  0  0  0  0  0  0  0
    6.5921   -0.8803    0.5038 C   0  0  0  0  0  0  0  0  0  0  0  0
    7.7820   -0.7833   -0.2511 C   0  0  0  0  0  0  0  0  0  0  0  0
    9.0005   -0.8394    0.3883 C   0  0  0  0  0  0  0  0  0  0  0  0
    9.0423   -0.9944    1.8008 C   0  0  0  0  0  0  0  0  0  0  0  0
   10.7206   -1.0700    2.6874 Br  0  0  0  0  0  0  0  0  0  0  0  0
    7.8912   -1.0898    2.5451 C   0  0  0  0  0  0  0  0  0  0  0  0
    6.6862   -1.0324    1.8902 N   0  0  0  0  0  0  0  0  0  0  0  0
    5.3763   -1.1021    2.3684 C   0  0  0  0  0  0  0  0  0  0  0  0
    5.0925   -1.2691    3.7995 C   0  0  0  0  0  0  0  0  0  0  0  0
    5.9502   -1.3301    4.6521 O   0  0  0  0  0  0  0  0  0  0  0  0
    3.7908   -1.3463    4.1573 O   0  0  0  0  0  0  0  0  0  0  0  0
    2.2855    2.4632    0.8851 H   0  0  0  0  0  0  0  0  0  0  0  0
    2.4940    1.3230   -0.4672 H   0  0  0  0  0  0  0  0  0  0  0  0
    3.8725    1.7176    0.5772 H   0  0  0  0  0  0  0  0  0  0  0  0
    1.3125    0.2343    1.4830 H   0  0  0  0  0  0  0  0  0  0  0  0
    2.6653    0.6339    2.5408 H   0  0  0  0  0  0  0  0  0  0  0  0
    2.8149   -1.2179    0.0769 H   0  0  0  0  0  0  0  0  0  0  0  0
    2.6303   -1.7867    1.7264 H   0  0  0  0  0  0  0  0  0  0  0  0
    7.6969   -0.6657   -1.3317 H   0  0  0  0  0  0  0  0  0  0  0  0
    9.9323   -0.7663   -0.1741 H   0  0  0  0  0  0  0  0  0  0  0  0
    7.8436   -1.2071    3.6259 H   0  0  0  0  0  0  0  0  0  0  0  0
    3.2094   -1.3307    3.3849 H   0  0  0  0  0  0  0  0  0  0  0  0
  1  2  1  0
  1 17  1  0
  1 18  1  0
  1 19  1  0
  2  3  1  0
  2 20  1  0
  2 21  1  0
  3  4  1  0
  3 22  1  0
  3 23  1  0
  4  5  1  0
  4 13  2  0
  5  6  2  0
  6  7  1  0
  6 12  1  0
  7  8  2  0
  7 24  1  0
  8  9  1  0
  8 25  1  0
  9 10  1  0
  9 11  2  0
 11 12  1  0
 11 26  1  0
 12 13  1  0
 13 14  1  0
 14 15  2  0
 14 16  1  0
 16 27  1  0
M  END

