
     RDKit          3D

 34 35  0  0  0  0  0  0  0  0999 V2000
    8.8654   -1.5210   -1.7402 N   0  0  0  0  0  0  0  0  0  0  0  0
    8.8129   -1.1574   -0.4441 C   0  0  0  0  0  0  0  0  0  0  0  0
    9.6963    0.1339    0.1272 S   0  0  0  0  0  0  0  0  0  0  0  0
    7.9008   -1.9415    0.4503 C   0  0  0  0  0  0  0  0  0  0  0  0
    7.2136   -1.2408    1.4684 C   0  0  0  0  0  0  0  0  0  0  0  0
    6.3519   -1.8605    2.3563 C   0  0  0  0  0  0  0  0  0  0  0  0
    6.1461   -3.2496    2.2827 C   0  0  0  0  0  0  0  0  0  0  0  0
    5.2847   -3.7750    3.1878 O   0  0  0  0  0  0  0  0  0  0  0  0
    5.0070   -5.1631    3.2244 C   0  0  0  0  0  0  0  0  0  0  0  0
    6.0499   -5.9190    4.0442 C   0  0  0  0  0  0  0  0  0  0  0  0
    5.6396   -7.2694    4.0611 O   0  0  0  0  0  0  0  0  0  0  0  0
    6.3759   -8.1931    4.7361 C   0  0  0  0  0  0  0  0  0  0  0  0
    7.5501   -7.9040    5.4454 C   0  0  0  0  0  0  0  0  0  0  0  0
    8.2363   -8.9293    6.1078 C   0  0  0  0  0  0  0  0  0  0  0  0
    7.7527  -10.2359    6.0629 C   0  0  0  0  0  0  0  0  0  0  0  0
    8.6910  -11.6301    6.9671 Br  0  0  0  0  0  0  0  0  0  0  0  0
    6.5799  -10.5317    5.3567 C   0  0  0  0  0  0  0  0  0  0  0  0
    5.8973   -9.5137    4.6977 C   0  0  0  0  0  0  0  0  0  0  0  0
    6.8224   -3.9850    1.3024 C   0  0  0  0  0  0  0  0  0  0  0  0
    7.6742   -3.3307    0.4029 C   0  0  0  0  0  0  0  0  0  0  0  0
    8.4858   -4.3883   -0.7528 Cl  0  0  0  0  0  0  0  0  0  0  0  0
    9.5177   -1.0299   -2.3413 H   0  0  0  0  0  0  0  0  0  0  0  0
    8.3967   -2.3484   -2.0894 H   0  0  0  0  0  0  0  0  0  0  0  0
    7.3942   -0.1670    1.5384 H   0  0  0  0  0  0  0  0  0  0  0  0
    5.8240   -1.2925    3.1241 H   0  0  0  0  0  0  0  0  0  0  0  0
    4.9267   -5.5943    2.2128 H   0  0  0  0  0  0  0  0  0  0  0  0
    4.0246   -5.2654    3.7074 H   0  0  0  0  0  0  0  0  0  0  0  0
    6.0916   -5.4966    5.0650 H   0  0  0  0  0  0  0  0  0  0  0  0
    7.0550   -5.8159    3.5954 H   0  0  0  0  0  0  0  0  0  0  0  0
    7.9460   -6.8893    5.4944 H   0  0  0  0  0  0  0  0  0  0  0  0
    9.1503   -8.7009    6.6588 H   0  0  0  0  0  0  0  0  0  0  0  0
    6.2030  -11.5554    5.3230 H   0  0  0  0  0  0  0  0  0  0  0  0
    4.9811   -9.7211    4.1411 H   0  0  0  0  0  0  0  0  0  0  0  0
    6.7155   -5.0647    1.2154 H   0  0  0  0  0  0  0  0  0  0  0  0
  1  2  1  0
  1 22  1  0
  1 23  1  0
  2  3  2  0
  2  4  1  0
  4  5  2  0
  4 20  1  0
  5  6  1  0
  5 24  1  0
  6  7  2  0
  6 25  1  0
  7  8  1  0
  7 19  1  0
  8  9  1  0
  9 10  1  0
  9 26  1  0
  9 27  1  0
 10 11  1  0
 10 28  1  0
 10 29  1  0
 11 12  1  0
 12 13  2  0
 12 18  1  0
 13 14  1  0
 13 30  1  0
 14 15  2  0
 14 31  1  0
 15 16  1  0
 15 17  1  0
 17 18  2  0
 17 32  1  0
 18 33  1  0
 19 20  2  0
 19 34  1  0
 20 21  1  0
M  END

