
     RDKit          3D

 56 59  0  0  0  0  0  0  0  0999 V2000
    3.5814    5.0360   -0.3132 C   0  0  0  0  0  0  0  0  0  0  0  0
    4.3151    4.4253    0.7263 O   0  0  0  0  0  0  0  0  0  0  0  0
    3.7299    3.4628    1.4762 C   0  0  0  0  0  0  0  0  0  0  0  0
    2.4197    3.0042    1.2814 C   0  0  0  0  0  0  0  0  0  0  0  0
    1.9415    2.0048    2.1308 C   0  0  0  0  0  0  0  0  0  0  0  0
    0.6844    1.5705    1.9463 F   0  0  0  0  0  0  0  0  0  0  0  0
    2.7015    1.4460    3.1477 C   0  0  0  0  0  0  0  0  0  0  0  0
    4.0187    1.9087    3.3372 C   0  0  0  0  0  0  0  0  0  0  0  0
    4.8395    1.4029    4.4770 C   0  0  0  0  0  0  0  0  0  0  0  0
    5.2268    2.3303    5.4552 C   0  0  0  0  0  0  0  0  0  0  0  0
    5.8833    2.0271    6.5764 N   0  0  0  0  0  0  0  0  0  0  0  0
    6.2013    0.7521    6.7586 C   0  0  0  0  0  0  0  0  0  0  0  0
    5.8986   -0.2899    5.8585 C   0  0  0  0  0  0  0  0  0  0  0  0
    6.4431   -1.6326    6.1001 C   0  0  0  0  0  0  0  0  0  0  0  0
    6.6446   -2.1957    7.3118 C   0  0  0  0  0  0  0  0  0  0  0  0
    7.2627   -3.4994    7.5763 C   0  0  0  0  0  0  0  0  0  0  0  0
    7.9311   -4.2677    6.5952 C   0  0  0  0  0  0  0  0  0  0  0  0
    8.4790   -5.4589    6.8186 N   0  0  0  0  0  0  0  0  0  0  0  0
    8.4150   -5.9748    8.0442 C   0  0  0  0  0  0  0  0  0  0  0  0
    7.7958   -5.3008    9.1146 C   0  0  0  0  0  0  0  0  0  0  0  0
    7.7613   -5.8890   10.4234 C   0  0  0  0  0  0  0  0  0  0  0  0
    7.7355   -6.3694   11.4800 N   0  0  0  0  0  0  0  0  0  0  0  0
    7.2158   -4.0474    8.8677 C   0  0  0  0  0  0  0  0  0  0  0  0
    5.1767    0.0338    4.6719 C   0  0  0  0  0  0  0  0  0  0  0  0
    4.7966   -0.9381    3.7353 N   0  0  0  0  0  0  0  0  0  0  0  0
    4.2837   -2.2505    4.1287 C   0  0  0  0  0  0  0  0  0  0  0  0
    3.1576   -2.6973    3.1886 C   0  0  0  0  0  0  0  0  0  0  0  0
    3.6064   -2.7117    1.7180 C   0  0  2  0  0  0  0  0  0  0  0  0
    4.5102   -3.8381    1.4725 N   0  0  0  0  0  0  0  0  0  0  0  0
    4.1716   -1.3195    1.3576 C   0  0  0  0  0  0  0  0  0  0  0  0
    5.2461   -0.8529    2.3444 C   0  0  0  0  0  0  0  0  0  0  0  0
    4.5206    2.9140    2.5039 C   0  0  0  0  0  0  0  0  0  0  0  0
    4.2478    5.7790   -0.7709 H   0  0  0  0  0  0  0  0  0  0  0  0
    2.6805    5.5491    0.0680 H   0  0  0  0  0  0  0  0  0  0  0  0
    3.2763    4.3055   -1.0839 H   0  0  0  0  0  0  0  0  0  0  0  0
    1.7619    3.3912    0.5049 H   0  0  0  0  0  0  0  0  0  0  0  0
    2.2663    0.6798    3.7886 H   0  0  0  0  0  0  0  0  0  0  0  0
    4.9469    3.3815    5.3206 H   0  0  0  0  0  0  0  0  0  0  0  0
    6.7928    0.5215    7.6522 H   0  0  0  0  0  0  0  0  0  0  0  0
    6.7252   -2.1914    5.2045 H   0  0  0  0  0  0  0  0  0  0  0  0
    6.2999   -1.6603    8.2029 H   0  0  0  0  0  0  0  0  0  0  0  0
    8.0321   -3.8807    5.5752 H   0  0  0  0  0  0  0  0  0  0  0  0
    8.8712   -6.9574    8.2035 H   0  0  0  0  0  0  0  0  0  0  0  0
    6.7263   -3.5046    9.6798 H   0  0  0  0  0  0  0  0  0  0  0  0
    3.9148   -2.1921    5.1621 H   0  0  0  0  0  0  0  0  0  0  0  0
    5.0758   -3.0270    4.1227 H   0  0  0  0  0  0  0  0  0  0  0  0
    2.3026   -2.0103    3.2995 H   0  0  0  0  0  0  0  0  0  0  0  0
    2.8225   -3.7062    3.4761 H   0  0  0  0  0  0  0  0  0  0  0  0
    2.7144   -2.8906    1.0938 H   0  0  0  0  0  0  0  0  0  0  0  0
    5.4005   -3.7155    1.9552 H   0  0  0  0  0  0  0  0  0  0  0  0
    4.7365   -3.8989    0.4795 H   0  0  0  0  0  0  0  0  0  0  0  0
    3.3507   -0.5850    1.3529 H   0  0  0  0  0  0  0  0  0  0  0  0
    4.5978   -1.3387    0.3396 H   0  0  0  0  0  0  0  0  0  0  0  0
    5.5442    0.1794    2.1217 H   0  0  0  0  0  0  0  0  0  0  0  0
    6.1606   -1.4745    2.2153 H   0  0  0  0  0  0  0  0  0  0  0  0
    5.5361    3.2930    2.6292 H   0  0  0  0  0  0  0  0  0  0  0  0
  1  2  1  0
  1 33  1  0
  1 34  1  0
  1 35  1  0
  2  3  1  0
  3  4  2  0
  3 32  1  0
  4  5  1  0
  4 36  1  0
  5  6  1  0
  5  7  2  0
  7  8  1  0
  7 37  1  0
  8  9  1  0
  8 32  2  0
  9 10  2  0
  9 24  1  0
 10 11  1  0
 10 38  1  0
 11 12  2  0
 12 13  1  0
 12 39  1  0
 13 14  1  0
 13 24  2  0
 14 15  2  0
 14 40  1  0
 15 16  1  0
 15 41  1  0
 16 17  2  0
 16 23  1  0
 17 18  1  0
 17 42  1  0
 18 19  2  0
 19 20  1  0
 19 43  1  0
 20 21  1  0
 20 23  2  0
 21 22  3  0
 23 44  1  0
 24 25  1  0
 25 26  1  0
 25 31  1  0
 26 27  1  0
 26 45  1  0
 26 46  1  0
 27 28  1  0
 27 47  1  0
 27 48  1  0
 28 29  1  0
 28 30  1  0
 28 49  1  6
 29 50  1  0
 29 51  1  0
 30 31  1  0
 30 52  1  0
 30 53  1  0
 31 54  1  0
 31 55  1  0
 32 56  1  0
M  END

