
     RDKit          3D

128139  0  0  0  0  0  0  0  0999 V2000
    1.6976   -3.8041    5.1624 C   0  0  0  0  0  0  0  0  0  0  0  0
    1.2164   -2.9730    3.9600 C   0  0  1  0  0  0  0  0  0  0  0  0
   -0.1899   -2.3904    4.1875 C   0  0  0  0  0  0  0  0  0  0  0  0
    2.2188   -1.8837    3.5935 C   0  0  0  0  0  0  0  0  0  0  0  0
    2.5179   -0.8742    4.5191 C   0  0  0  0  0  0  0  0  0  0  0  0
    3.4278    0.1362    4.2140 C   0  0  0  0  0  0  0  0  0  0  0  0
    4.0576    0.1548    2.9711 C   0  0  0  0  0  0  0  0  0  0  0  0
    3.7928   -0.8309    2.0101 C   0  0  0  0  0  0  0  0  0  0  0  0
    4.5003   -0.7806    0.6601 C   0  0  1  0  0  0  0  0  0  0  0  0
    4.1357    0.4939   -0.1217 C   0  0  0  0  0  0  0  0  0  0  0  0
    6.0225   -0.9468    0.8142 C   0  0  0  0  0  0  0  0  0  0  0  0
    2.8689   -1.8414    2.3438 C   0  0  0  0  0  0  0  0  0  0  0  0
    2.5767   -2.8743    1.3670 N   0  0  0  0  0  0  0  0  0  0  0  0
    3.3878   -4.0262    1.3794 C   0  0  0  0  0  0  0  0  0  0  0  0
    4.3002   -4.1400    2.1753 O   0  0  0  0  0  0  0  0  0  0  0  0
    3.0647   -5.0770    0.3791 C   0  0  0  0  0  0  0  0  0  0  0  0
    3.8095   -6.2480    0.3496 C   0  0  0  0  0  0  0  0  0  0  0  0
    3.4883   -7.2770   -0.5479 C   0  0  0  0  0  0  0  0  0  0  0  0
    2.4317   -7.1509   -1.4627 C   0  0  0  0  0  0  0  0  0  0  0  0
    1.9851   -8.2550   -2.3091 C   0  0  0  0  0  0  0  0  0  0  0  0
    2.6790   -9.5683   -2.1197 C   0  0  0  0  0  0  0  0  0  0  0  0
    3.5497  -10.0573   -3.1102 C   0  0  0  0  0  0  0  0  0  0  0  0
    4.2323  -11.2581   -2.9317 C   0  0  0  0  0  0  0  0  0  0  0  0
    4.0499  -12.0161   -1.7652 C   0  0  0  0  0  0  0  0  0  0  0  0
    4.8288  -13.2975   -1.6320 C   0  0  0  0  0  0  0  0  0  0  0  0
    5.8030  -13.5406   -2.2926 O   0  0  0  0  0  0  0  0  0  0  0  0
    4.3785  -14.1875   -0.7196 O   0  0  0  0  0  0  0  0  0  0  0  0
    3.1985  -11.5229   -0.7640 C   0  0  0  0  0  0  0  0  0  0  0  0
    2.5277  -10.3111   -0.9357 C   0  0  0  0  0  0  0  0  0  0  0  0
    1.0139   -8.0507   -3.2793 C   0  0  0  0  0  0  0  0  0  0  0  0
    0.4444   -9.1285   -4.1113 C   0  0  0  0  0  0  0  0  0  0  0  0
    0.3157  -10.4577   -3.6855 C   0  0  0  0  0  0  0  0  0  0  0  0
   -0.1510  -11.4627   -4.5433 C   0  0  0  0  0  0  0  0  0  0  0  0
   -0.4877  -11.1706   -5.8584 C   0  0  0  0  0  0  0  0  0  0  0  0
   -0.4292   -9.8302   -6.3109 C   0  0  0  0  0  0  0  0  0  0  0  0
   -0.7856   -9.5163   -7.6488 C   0  0  0  0  0  0  0  0  0  0  0  0
   -0.7445   -8.1970   -8.0779 C   0  0  0  0  0  0  0  0  0  0  0  0
   -0.4100   -7.1661   -7.1872 C   0  0  0  0  0  0  0  0  0  0  0  0
   -0.0756   -7.4300   -5.8503 C   0  0  0  0  0  0  0  0  0  0  0  0
    0.1388   -6.3707   -4.8671 C   0  0  0  0  0  0  0  0  0  0  0  0
   -0.0673   -4.9646   -5.3380 C   0  0  0  0  0  0  0  0  0  0  0  0
    1.0309   -4.1018   -5.4841 C   0  0  0  0  0  0  0  0  0  0  0  0
    0.8548   -2.7949   -5.9408 C   0  0  0  0  0  0  0  0  0  0  0  0
   -0.4240   -2.3176   -6.2659 C   0  0  0  0  0  0  0  0  0  0  0  0
   -0.6824   -0.9281   -6.7843 C   0  0  0  0  0  0  0  0  0  0  0  0
   -1.6784   -0.6324   -7.3890 O   0  0  0  0  0  0  0  0  0  0  0  0
    0.2702   -0.0024   -6.5355 O   0  0  0  0  0  0  0  0  0  0  0  0
   -1.5197   -3.1877   -6.1542 C   0  0  0  0  0  0  0  0  0  0  0  0
   -1.3445   -4.4906   -5.6946 C   0  0  0  0  0  0  0  0  0  0  0  0
    0.5754   -6.6767   -3.5855 C   0  0  0  0  0  0  0  0  0  0  0  0
    0.7250   -5.6780   -2.5094 C   0  0  0  0  0  0  0  0  0  0  0  0
   -0.0615   -4.5225   -2.4018 C   0  0  0  0  0  0  0  0  0  0  0  0
    0.1818   -3.5575   -1.4152 C   0  0  0  0  0  0  0  0  0  0  0  0
    1.2284   -3.7128   -0.5154 C   0  0  0  0  0  0  0  0  0  0  0  0
    2.0051   -4.8964   -0.5484 C   0  0  0  0  0  0  0  0  0  0  0  0
    1.7193   -5.9096   -1.5132 C   0  0  0  0  0  0  0  0  0  0  0  0
    1.5051   -2.6461    0.4830 C   0  0  0  0  0  0  0  0  0  0  0  0
    0.8498   -1.6234    0.5428 O   0  0  0  0  0  0  0  0  0  0  0  0
   -0.0153   -8.7944   -5.4196 C   0  0  0  0  0  0  0  0  0  0  0  0
   -1.1993  -10.5844   -8.5968 C   0  0  0  0  0  0  0  0  0  0  0  0
   -1.4866  -10.3533   -9.7554 O   0  0  0  0  0  0  0  0  0  0  0  0
   -1.2480  -11.8961   -8.0857 N   0  0  0  0  0  0  0  0  0  0  0  0
   -1.6644  -12.9510   -8.9915 C   0  0  0  0  0  0  0  0  0  0  0  0
   -0.6862  -13.6133   -9.7601 C   0  0  0  0  0  0  0  0  0  0  0  0
    0.7958  -13.2625   -9.6803 C   0  0  1  0  0  0  0  0  0  0  0  0
    1.6352  -14.4544   -9.1876 C   0  0  0  0  0  0  0  0  0  0  0  0
    1.3148  -12.7061  -11.0182 C   0  0  0  0  0  0  0  0  0  0  0  0
   -1.1148  -14.6277  -10.6276 C   0  0  0  0  0  0  0  0  0  0  0  0
   -2.4621  -14.9698  -10.7257 C   0  0  0  0  0  0  0  0  0  0  0  0
   -3.4095  -14.2994   -9.9543 C   0  0  0  0  0  0  0  0  0  0  0  0
   -3.0332  -13.2770   -9.0721 C   0  0  0  0  0  0  0  0  0  0  0  0
   -4.0959  -12.5655   -8.2414 C   0  0  1  0  0  0  0  0  0  0  0  0
   -5.1148  -11.8328   -9.1320 C   0  0  0  0  0  0  0  0  0  0  0  0
   -4.7800  -13.5305   -7.2567 C   0  0  0  0  0  0  0  0  0  0  0  0
   -0.9280  -12.2642   -6.7653 C   0  0  0  0  0  0  0  0  0  0  0  0
   -1.0104  -13.4207   -6.3988 O   0  0  0  0  0  0  0  0  0  0  0  0
    0.9949   -4.6280    5.3695 H   0  0  0  0  0  0  0  0  0  0  0  0
    1.7685   -3.1923    6.0765 H   0  0  0  0  0  0  0  0  0  0  0  0
    2.6908   -4.2378    4.9690 H   0  0  0  0  0  0  0  0  0  0  0  0
    1.1417   -3.6626    3.1062 H   0  0  0  0  0  0  0  0  0  0  0  0
   -0.2097   -1.7072    5.0523 H   0  0  0  0  0  0  0  0  0  0  0  0
   -0.9161   -3.1963    4.3848 H   0  0  0  0  0  0  0  0  0  0  0  0
   -0.5293   -1.8276    3.3046 H   0  0  0  0  0  0  0  0  0  0  0  0
    2.0292   -0.8794    5.4964 H   0  0  0  0  0  0  0  0  0  0  0  0
    3.6475    0.9142    4.9497 H   0  0  0  0  0  0  0  0  0  0  0  0
    4.7698    0.9511    2.7420 H   0  0  0  0  0  0  0  0  0  0  0  0
    4.1452   -1.6332    0.0626 H   0  0  0  0  0  0  0  0  0  0  0  0
    4.4873    1.4017    0.3951 H   0  0  0  0  0  0  0  0  0  0  0  0
    3.0454    0.5794   -0.2484 H   0  0  0  0  0  0  0  0  0  0  0  0
    4.6011    0.4817   -1.1212 H   0  0  0  0  0  0  0  0  0  0  0  0
    6.4661   -0.1104    1.3785 H   0  0  0  0  0  0  0  0  0  0  0  0
    6.5114   -0.9763   -0.1736 H   0  0  0  0  0  0  0  0  0  0  0  0
    6.2635   -1.8794    1.3469 H   0  0  0  0  0  0  0  0  0  0  0  0
    4.6329   -6.3592    1.0576 H   0  0  0  0  0  0  0  0  0  0  0  0
    4.0682   -8.1987   -0.5158 H   0  0  0  0  0  0  0  0  0  0  0  0
    3.6934   -9.4829   -4.0281 H   0  0  0  0  0  0  0  0  0  0  0  0
    4.9220  -11.6321   -3.6906 H   0  0  0  0  0  0  0  0  0  0  0  0
    3.5149  -13.9206   -0.3760 H   0  0  0  0  0  0  0  0  0  0  0  0
    3.0714  -12.0606    0.1805 H   0  0  0  0  0  0  0  0  0  0  0  0
    1.8763   -9.9373   -0.1422 H   0  0  0  0  0  0  0  0  0  0  0  0
    0.5735  -10.7273   -2.6645 H   0  0  0  0  0  0  0  0  0  0  0  0
   -0.2445  -12.4942   -4.1986 H   0  0  0  0  0  0  0  0  0  0  0  0
   -1.0038   -7.9784   -9.1155 H   0  0  0  0  0  0  0  0  0  0  0  0
   -0.4302   -6.1379   -7.5468 H   0  0  0  0  0  0  0  0  0  0  0  0
    2.0335   -4.4607   -5.2419 H   0  0  0  0  0  0  0  0  0  0  0  0
    1.7392   -2.1639   -6.0707 H   0  0  0  0  0  0  0  0  0  0  0  0
    0.9318   -0.3464   -5.9195 H   0  0  0  0  0  0  0  0  0  0  0  0
   -2.5072   -2.8174   -6.4361 H   0  0  0  0  0  0  0  0  0  0  0  0
   -2.2093   -5.1521   -5.6025 H   0  0  0  0  0  0  0  0  0  0  0  0
   -0.8881   -4.3620   -3.0895 H   0  0  0  0  0  0  0  0  0  0  0  0
   -0.4371   -2.6610   -1.3454 H   0  0  0  0  0  0  0  0  0  0  0  0
    0.9124  -12.4617   -8.9351 H   0  0  0  0  0  0  0  0  0  0  0  0
    1.6018  -15.2961   -9.8984 H   0  0  0  0  0  0  0  0  0  0  0  0
    1.2690  -14.8191   -8.2155 H   0  0  0  0  0  0  0  0  0  0  0  0
    2.6917  -14.1619   -9.0709 H   0  0  0  0  0  0  0  0  0  0  0  0
    1.2624  -13.4626  -11.8183 H   0  0  0  0  0  0  0  0  0  0  0  0
    2.3681  -12.3938  -10.9257 H   0  0  0  0  0  0  0  0  0  0  0  0
    0.7226  -11.8350  -11.3378 H   0  0  0  0  0  0  0  0  0  0  0  0
   -0.3801  -15.1591  -11.2371 H   0  0  0  0  0  0  0  0  0  0  0  0
   -2.7760  -15.7640  -11.4080 H   0  0  0  0  0  0  0  0  0  0  0  0
   -4.4634  -14.5754  -10.0387 H   0  0  0  0  0  0  0  0  0  0  0  0
   -3.5919  -11.7972   -7.6365 H   0  0  0  0  0  0  0  0  0  0  0  0
   -5.6925  -12.5374   -9.7523 H   0  0  0  0  0  0  0  0  0  0  0  0
   -4.6101  -11.1247   -9.8071 H   0  0  0  0  0  0  0  0  0  0  0  0
   -5.8337  -11.2692   -8.5148 H   0  0  0  0  0  0  0  0  0  0  0  0
   -5.3389  -14.3196   -7.7859 H   0  0  0  0  0  0  0  0  0  0  0  0
   -5.4964  -12.9886   -6.6174 H   0  0  0  0  0  0  0  0  0  0  0  0
   -4.0381  -14.0198   -6.6072 H   0  0  0  0  0  0  0  0  0  0  0  0
  1  2  1  0
  1 77  1  0
  1 78  1  0
  1 79  1  0
  2  3  1  0
  2  4  1  0
  2 80  1  6
  3 81  1  0
  3 82  1  0
  3 83  1  0
  4  5  2  0
  4 12  1  0
  5  6  1  0
  5 84  1  0
  6  7  2  0
  6 85  1  0
  7  8  1  0
  7 86  1  0
  8  9  1  0
  8 12  2  0
  9 10  1  0
  9 11  1  0
  9 87  1  6
 10 88  1  0
 10 89  1  0
 10 90  1  0
 11 91  1  0
 11 92  1  0
 11 93  1  0
 12 13  1  0
 13 14  1  0
 13 57  1  0
 14 15  2  0
 14 16  1  0
 16 17  2  0
 16 55  1  0
 17 18  1  0
 17 94  1  0
 18 19  2  0
 18 95  1  0
 19 20  1  0
 19 56  1  0
 20 21  1  0
 20 30  2  0
 21 22  2  0
 21 29  1  0
 22 23  1  0
 22 96  1  0
 23 24  2  0
 23 97  1  0
 24 25  1  0
 24 28  1  0
 25 26  2  0
 25 27  1  0
 27 98  1  0
 28 29  2  0
 28 99  1  0
 29100  1  0
 30 31  1  0
 30 50  1  0
 31 32  2  0
 31 59  1  0
 32 33  1  0
 32101  1  0
 33 34  2  0
 33102  1  0
 34 35  1  0
 34 75  1  0
 35 36  1  0
 35 59  2  0
 36 37  2  0
 36 60  1  0
 37 38  1  0
 37103  1  0
 38 39  2  0
 38104  1  0
 39 40  1  0
 39 59  1  0
 40 41  1  0
 40 50  2  0
 41 42  2  0
 41 49  1  0
 42 43  1  0
 42105  1  0
 43 44  2  0
 43106  1  0
 44 45  1  0
 44 48  1  0
 45 46  2  0
 45 47  1  0
 47107  1  0
 48 49  2  0
 48108  1  0
 49109  1  0
 50 51  1  0
 51 52  1  0
 51 56  2  0
 52 53  2  0
 52110  1  0
 53 54  1  0
 53111  1  0
 54 55  2  0
 54 57  1  0
 55 56  1  0
 57 58  2  0
 60 61  2  0
 60 62  1  0
 62 63  1  0
 62 75  1  0
 63 64  2  0
 63 71  1  0
 64 65  1  0
 64 68  1  0
 65 66  1  0
 65 67  1  0
 65112  1  1
 66113  1  0
 66114  1  0
 66115  1  0
 67116  1  0
 67117  1  0
 67118  1  0
 68 69  2  0
 68119  1  0
 69 70  1  0
 69120  1  0
 70 71  2  0
 70121  1  0
 71 72  1  0
 72 73  1  0
 72 74  1  0
 72122  1  1
 73123  1  0
 73124  1  0
 73125  1  0
 74126  1  0
 74127  1  0
 74128  1  0
 75 76  2  0
M  END

