
     RDKit          3D

 41 43  0  0  0  0  0  0  0  0999 V2000
    3.1238    0.6611   -0.8555 C   0  0  0  0  0  0  0  0  0  0  0  0
    2.7913   -0.5248   -0.1662 O   0  0  0  0  0  0  0  0  0  0  0  0
    3.2231   -0.7011    1.1009 C   0  0  0  0  0  0  0  0  0  0  0  0
    3.9013    0.2513    1.8634 C   0  0  0  0  0  0  0  0  0  0  0  0
    4.2890   -0.0034    3.2027 C   0  0  0  0  0  0  0  0  0  0  0  0
    4.9894    1.0790    3.8904 C   0  0  0  0  0  0  0  0  0  0  0  0
    5.4124    1.2271    5.1808 C   0  0  0  0  0  0  0  0  0  0  0  0
    5.1548    0.2356    6.1871 C   0  0  0  0  0  0  0  0  0  0  0  0
    4.9622   -0.5351    7.0357 N   0  0  0  0  0  0  0  0  0  0  0  0
    6.1482    2.4344    5.6507 C   0  0  0  0  0  0  0  0  0  0  0  0
    6.1205    2.8066    7.0087 C   0  0  0  0  0  0  0  0  0  0  0  0
    6.7818    3.9470    7.4631 C   0  0  0  0  0  0  0  0  0  0  0  0
    7.4963    4.7355    6.5576 C   0  0  0  0  0  0  0  0  0  0  0  0
    8.3310    6.1638    7.1165 Cl  0  0  0  0  0  0  0  0  0  0  0  0
    7.5584    4.3795    5.2064 C   0  0  0  0  0  0  0  0  0  0  0  0
    6.8938    3.2371    4.7651 C   0  0  0  0  0  0  0  0  0  0  0  0
    3.9806   -1.2591    3.7627 C   0  0  0  0  0  0  0  0  0  0  0  0
    3.3152   -2.2192    3.0007 C   0  0  0  0  0  0  0  0  0  0  0  0
    2.9425   -1.9544    1.6880 C   0  0  0  0  0  0  0  0  0  0  0  0
    2.2338   -2.9043    0.9803 O   0  0  0  0  0  0  0  0  0  0  0  0
    2.8140   -3.4759   -0.1154 C   0  0  0  0  0  0  0  0  0  0  0  0
    3.9544   -3.2995   -0.4553 O   0  0  0  0  0  0  0  0  0  0  0  0
    1.8812   -4.3629   -0.8171 C   0  0  0  0  0  0  0  0  0  0  0  0
    2.0855   -5.1480   -1.9260 C   0  0  0  0  0  0  0  0  0  0  0  0
    0.8516   -5.8095   -2.1882 C   0  0  0  0  0  0  0  0  0  0  0  0
   -0.0075   -5.3692   -1.2106 C   0  0  0  0  0  0  0  0  0  0  0  0
   -1.7964   -5.7747   -0.8791 Br  0  0  0  0  0  0  0  0  0  0  0  0
    0.5928   -4.5024   -0.3802 O   0  0  0  0  0  0  0  0  0  0  0  0
    2.7082    0.5598   -1.8665 H   0  0  0  0  0  0  0  0  0  0  0  0
    4.2175    0.7952   -0.9281 H   0  0  0  0  0  0  0  0  0  0  0  0
    2.6813    1.5518   -0.3746 H   0  0  0  0  0  0  0  0  0  0  0  0
    4.1348    1.2232    1.4283 H   0  0  0  0  0  0  0  0  0  0  0  0
    5.1933    1.9373    3.2448 H   0  0  0  0  0  0  0  0  0  0  0  0
    5.5660    2.1970    7.7253 H   0  0  0  0  0  0  0  0  0  0  0  0
    6.7449    4.2266    8.5171 H   0  0  0  0  0  0  0  0  0  0  0  0
    8.1386    4.9880    4.5109 H   0  0  0  0  0  0  0  0  0  0  0  0
    6.9852    2.9559    3.7142 H   0  0  0  0  0  0  0  0  0  0  0  0
    4.2606   -1.5020    4.7854 H   0  0  0  0  0  0  0  0  0  0  0  0
    3.0757   -3.1983    3.4197 H   0  0  0  0  0  0  0  0  0  0  0  0
    3.0202   -5.2289   -2.4759 H   0  0  0  0  0  0  0  0  0  0  0  0
    0.6200   -6.5132   -2.9832 H   0  0  0  0  0  0  0  0  0  0  0  0
  1  2  1  0
  1 29  1  0
  1 30  1  0
  1 31  1  0
  2  3  1  0
  3  4  2  0
  3 19  1  0
  4  5  1  0
  4 32  1  0
  5  6  1  0
  5 17  2  0
  6  7  2  0
  6 33  1  0
  7  8  1  0
  7 10  1  0
  8  9  3  0
 10 11  2  0
 10 16  1  0
 11 12  1  0
 11 34  1  0
 12 13  2  0
 12 35  1  0
 13 14  1  0
 13 15  1  0
 15 16  2  0
 15 36  1  0
 16 37  1  0
 17 18  1  0
 17 38  1  0
 18 19  2  0
 18 39  1  0
 19 20  1  0
 20 21  1  0
 21 22  2  0
 21 23  1  0
 23 24  2  0
 23 28  1  0
 24 25  1  0
 24 40  1  0
 25 26  2  0
 25 41  1  0
 26 27  1  0
 26 28  1  0
M  END

