
     RDKit          3D

 55 57  0  0  0  0  0  0  0  0999 V2000
    2.4215    2.5060    1.3893 O   0  0  0  0  0  0  0  0  0  0  0  0
    2.1681    1.3926    0.9768 C   0  0  0  0  0  0  0  0  0  0  0  0
    0.7541    0.9518    0.6043 C   0  0  0  0  0  0  0  0  0  0  0  0
   -0.3283    1.7597    1.3355 C   0  0  0  0  0  0  0  0  0  0  0  0
   -1.7277    1.4144    0.8755 C   0  0  0  0  0  0  0  0  0  0  0  0
   -2.4670    0.4014    1.5071 C   0  0  0  0  0  0  0  0  0  0  0  0
   -3.7468    0.0591    1.0610 C   0  0  0  0  0  0  0  0  0  0  0  0
   -4.3114    0.7271   -0.0295 C   0  0  0  0  0  0  0  0  0  0  0  0
   -3.5883    1.7401   -0.6666 C   0  0  0  0  0  0  0  0  0  0  0  0
   -2.3094    2.0791   -0.2165 C   0  0  0  0  0  0  0  0  0  0  0  0
    3.1284    0.4122    0.7793 N   0  0  0  0  0  0  0  0  0  0  0  0
    4.5289    0.5261    0.8816 C   0  0  0  0  0  0  0  0  0  0  0  0
    5.1993    1.7611    0.8603 C   0  0  0  0  0  0  0  0  0  0  0  0
    6.5895    1.8037    0.8842 C   0  0  0  0  0  0  0  0  0  0  0  0
    7.3414    0.6209    0.9134 C   0  0  0  0  0  0  0  0  0  0  0  0
    8.8397    0.7287    0.9070 C   0  0  0  0  0  0  0  0  0  0  0  0
    9.4281    1.7422    1.1796 O   0  0  0  0  0  0  0  0  0  0  0  0
    9.5222   -0.3883    0.5659 O   0  0  0  0  0  0  0  0  0  0  0  0
    6.6795   -0.6109    0.9903 C   0  0  0  0  0  0  0  0  0  0  0  0
    5.2818   -0.6710    0.9943 C   0  0  0  0  0  0  0  0  0  0  0  0
    4.5815   -1.8934    1.1333 N   0  0  0  0  0  0  0  0  0  0  0  0
    5.0222   -3.1579    0.7869 C   0  0  0  0  0  0  0  0  0  0  0  0
    6.1028   -3.3697    0.2700 O   0  0  0  0  0  0  0  0  0  0  0  0
    4.0158   -4.2706    1.0681 C   0  0  0  0  0  0  0  0  0  0  0  0
    4.6963   -5.6098    1.3945 C   0  0  0  0  0  0  0  0  0  0  0  0
    3.7118   -6.7503    1.5314 C   0  0  0  0  0  0  0  0  0  0  0  0
    3.3193   -7.4981    0.4091 C   0  0  0  0  0  0  0  0  0  0  0  0
    2.3845   -8.5306    0.5242 C   0  0  0  0  0  0  0  0  0  0  0  0
    1.8243   -8.8352    1.7687 C   0  0  0  0  0  0  0  0  0  0  0  0
    2.2081   -8.1017    2.8951 C   0  0  0  0  0  0  0  0  0  0  0  0
    3.1430   -7.0694    2.7748 C   0  0  0  0  0  0  0  0  0  0  0  0
    0.6237   -0.1291    0.7848 H   0  0  0  0  0  0  0  0  0  0  0  0
    0.6457    1.0915   -0.4872 H   0  0  0  0  0  0  0  0  0  0  0  0
   -0.1205    2.8283    1.1771 H   0  0  0  0  0  0  0  0  0  0  0  0
   -0.2341    1.5858    2.4198 H   0  0  0  0  0  0  0  0  0  0  0  0
   -2.0373   -0.1209    2.3675 H   0  0  0  0  0  0  0  0  0  0  0  0
   -4.3075   -0.7287    1.5709 H   0  0  0  0  0  0  0  0  0  0  0  0
   -5.3134    0.4637   -0.3777 H   0  0  0  0  0  0  0  0  0  0  0  0
   -4.0247    2.2740   -1.5149 H   0  0  0  0  0  0  0  0  0  0  0  0
   -1.7550    2.8799   -0.7154 H   0  0  0  0  0  0  0  0  0  0  0  0
    2.7950   -0.4583    0.3790 H   0  0  0  0  0  0  0  0  0  0  0  0
    4.6130    2.6763    0.8243 H   0  0  0  0  0  0  0  0  0  0  0  0
    7.1178    2.7583    0.8631 H   0  0  0  0  0  0  0  0  0  0  0  0
    8.9193   -1.0723    0.2408 H   0  0  0  0  0  0  0  0  0  0  0  0
    7.2233   -1.5508    1.0680 H   0  0  0  0  0  0  0  0  0  0  0  0
    3.7156   -1.8489    1.6598 H   0  0  0  0  0  0  0  0  0  0  0  0
    3.4006   -4.3868    0.1572 H   0  0  0  0  0  0  0  0  0  0  0  0
    3.3192   -3.9809    1.8731 H   0  0  0  0  0  0  0  0  0  0  0  0
    5.2762   -5.4999    2.3256 H   0  0  0  0  0  0  0  0  0  0  0  0
    5.4252   -5.8204    0.5978 H   0  0  0  0  0  0  0  0  0  0  0  0
    3.7598   -7.2735   -0.5671 H   0  0  0  0  0  0  0  0  0  0  0  0
    2.0972   -9.1043   -0.3608 H   0  0  0  0  0  0  0  0  0  0  0  0
    1.0965   -9.6452    1.8611 H   0  0  0  0  0  0  0  0  0  0  0  0
    1.7820   -8.3376    3.8738 H   0  0  0  0  0  0  0  0  0  0  0  0
    3.4439   -6.5069    3.6641 H   0  0  0  0  0  0  0  0  0  0  0  0
  1  2  2  0
  2  3  1  0
  2 11  1  0
  3  4  1  0
  3 32  1  0
  3 33  1  0
  4  5  1  0
  4 34  1  0
  4 35  1  0
  5  6  2  0
  5 10  1  0
  6  7  1  0
  6 36  1  0
  7  8  2  0
  7 37  1  0
  8  9  1  0
  8 38  1  0
  9 10  2  0
  9 39  1  0
 10 40  1  0
 11 12  1  0
 11 41  1  0
 12 13  2  0
 12 20  1  0
 13 14  1  0
 13 42  1  0
 14 15  2  0
 14 43  1  0
 15 16  1  0
 15 19  1  0
 16 17  2  0
 16 18  1  0
 18 44  1  0
 19 20  2  0
 19 45  1  0
 20 21  1  0
 21 22  1  0
 21 46  1  0
 22 23  2  0
 22 24  1  0
 24 25  1  0
 24 47  1  0
 24 48  1  0
 25 26  1  0
 25 49  1  0
 25 50  1  0
 26 27  2  0
 26 31  1  0
 27 28  1  0
 27 51  1  0
 28 29  2  0
 28 52  1  0
 29 30  1  0
 29 53  1  0
 30 31  2  0
 30 54  1  0
 31 55  1  0
M  END

