
     RDKit          3D

 44 44  0  0  0  0  0  0  0  0999 V2000
    3.8293    2.3956   -0.5784 C   0  0  0  0  0  0  0  0  0  0  0  0
    3.6399    0.8801   -0.5136 C   0  0  0  0  0  0  0  0  0  0  0  0
    4.5682    0.1339   -1.4602 C   0  0  0  0  0  0  0  0  0  0  0  0
    4.3227   -1.2556   -1.3293 O   0  0  0  0  0  0  0  0  0  0  0  0
    5.0363   -2.1519   -2.0780 C   0  0  0  0  0  0  0  0  0  0  0  0
    6.0232   -1.8076   -2.9993 C   0  0  0  0  0  0  0  0  0  0  0  0
    6.7094   -2.7975   -3.7301 C   0  0  0  0  0  0  0  0  0  0  0  0
    7.7754   -2.4023   -4.7236 C   0  0  0  0  0  0  0  0  0  0  0  0
    6.3709   -4.1331   -3.5045 C   0  0  0  0  0  0  0  0  0  0  0  0
    5.3807   -4.4958   -2.5818 C   0  0  0  0  0  0  0  0  0  0  0  0
    4.7002   -3.5145   -1.8552 C   0  0  0  0  0  0  0  0  0  0  0  0
    3.6979   -3.7565   -0.9058 N   0  0  0  0  0  0  0  0  0  0  0  0
    3.1724   -4.9707   -0.5087 C   0  0  0  0  0  0  0  0  0  0  0  0
    3.5098   -6.0543   -0.9629 O   0  0  0  0  0  0  0  0  0  0  0  0
    2.1866   -4.8406    0.4527 N   0  0  0  0  0  0  0  0  0  0  0  0
    1.6747   -6.0071    1.1209 C   0  0  0  0  0  0  0  0  0  0  0  0
    1.6187   -5.7561    2.6318 C   0  0  0  0  0  0  0  0  0  0  0  0
    1.7760   -4.6352    3.0941 O   0  0  0  0  0  0  0  0  0  0  0  0
    1.3371   -6.8523    3.3859 N   0  0  0  0  0  0  0  0  0  0  0  0
    1.2286   -6.8177    4.8368 C   0  0  0  0  0  0  0  0  0  0  0  0
    2.4151   -7.4672    5.5486 C   0  0  0  0  0  0  0  0  0  0  0  0
    3.1462    2.9091    0.1153 H   0  0  0  0  0  0  0  0  0  0  0  0
    3.6291    2.7864   -1.5900 H   0  0  0  0  0  0  0  0  0  0  0  0
    4.8575    2.6875   -0.3069 H   0  0  0  0  0  0  0  0  0  0  0  0
    2.5985    0.6135   -0.7627 H   0  0  0  0  0  0  0  0  0  0  0  0
    3.8194    0.5152    0.5120 H   0  0  0  0  0  0  0  0  0  0  0  0
    5.6262    0.3550   -1.2208 H   0  0  0  0  0  0  0  0  0  0  0  0
    4.3940    0.4519   -2.5062 H   0  0  0  0  0  0  0  0  0  0  0  0
    6.2735   -0.7583   -3.1625 H   0  0  0  0  0  0  0  0  0  0  0  0
    8.5949   -1.8440   -4.2390 H   0  0  0  0  0  0  0  0  0  0  0  0
    7.3696   -1.7508   -5.5166 H   0  0  0  0  0  0  0  0  0  0  0  0
    8.2160   -3.2847   -5.2106 H   0  0  0  0  0  0  0  0  0  0  0  0
    6.8869   -4.9216   -4.0590 H   0  0  0  0  0  0  0  0  0  0  0  0
    5.1214   -5.5388   -2.4147 H   0  0  0  0  0  0  0  0  0  0  0  0
    3.3071   -2.9110   -0.5053 H   0  0  0  0  0  0  0  0  0  0  0  0
    2.1597   -4.0069    1.0372 H   0  0  0  0  0  0  0  0  0  0  0  0
    2.3139   -6.8719    0.8784 H   0  0  0  0  0  0  0  0  0  0  0  0
    0.6509   -6.2655    0.7838 H   0  0  0  0  0  0  0  0  0  0  0  0
    1.2856   -7.7521    2.9211 H   0  0  0  0  0  0  0  0  0  0  0  0
    0.2869   -7.3094    5.1381 H   0  0  0  0  0  0  0  0  0  0  0  0
    1.1489   -5.7570    5.1129 H   0  0  0  0  0  0  0  0  0  0  0  0
    2.5254   -8.5278    5.2668 H   0  0  0  0  0  0  0  0  0  0  0  0
    2.2782   -7.4254    6.6411 H   0  0  0  0  0  0  0  0  0  0  0  0
    3.3540   -6.9488    5.3001 H   0  0  0  0  0  0  0  0  0  0  0  0
  1  2  1  0
  1 22  1  0
  1 23  1  0
  1 24  1  0
  2  3  1  0
  2 25  1  0
  2 26  1  0
  3  4  1  0
  3 27  1  0
  3 28  1  0
  4  5  1  0
  5  6  2  0
  5 11  1  0
  6  7  1  0
  6 29  1  0
  7  8  1  0
  7  9  2  0
  8 30  1  0
  8 31  1  0
  8 32  1  0
  9 10  1  0
  9 33  1  0
 10 11  2  0
 10 34  1  0
 11 12  1  0
 12 13  1  0
 12 35  1  0
 13 14  2  0
 13 15  1  0
 15 16  1  0
 15 36  1  0
 16 17  1  0
 16 37  1  0
 16 38  1  0
 17 18  2  0
 17 19  1  0
 19 20  1  0
 19 39  1  0
 20 21  1  0
 20 40  1  0
 20 41  1  0
 21 42  1  0
 21 43  1  0
 21 44  1  0
M  END

