
     RDKit          3D

 49 49  0  0  0  0  0  0  0  0999 V2000
    4.0444   -1.2161   -3.1221 C   0  0  0  0  0  0  0  0  0  0  0  0
    3.5635   -0.4582   -1.9207 C   0  0  0  0  0  0  0  0  0  0  0  0
    3.6117    0.8717   -1.9012 N   0  0  0  0  0  0  0  0  0  0  0  0
    3.1203    1.2347   -0.7011 N   0  0  0  0  0  0  0  0  0  0  0  0
    3.0151    2.6364   -0.3628 C   0  0  0  0  0  0  0  0  0  0  0  0
    2.7505    0.1639    0.0613 C   0  0  0  0  0  0  0  0  0  0  0  0
    2.1838    0.3009    1.4381 C   0  0  0  0  0  0  0  0  0  0  0  0
    3.0278   -0.9689   -0.7024 C   0  0  0  0  0  0  0  0  0  0  0  0
    2.8254   -2.4097   -0.3215 C   0  0  0  0  0  0  0  0  0  0  0  0
    1.4711   -2.6726    0.1571 N   0  0  0  0  0  0  0  0  0  0  0  0
    1.1347   -4.0750    0.3860 C   0  0  1  0  0  0  0  0  0  0  0  0
    1.7028   -4.5639    1.7324 C   0  0  0  0  0  0  0  0  0  0  0  0
    1.5801   -6.0655    2.0611 C   0  0  1  0  0  0  0  0  0  0  0  0
    2.3353   -6.9585    1.0666 C   0  0  0  0  0  0  0  0  0  0  0  0
    2.0632   -6.3283    3.4942 C   0  0  0  0  0  0  0  0  0  0  0  0
   -0.3986   -4.2018    0.3449 C   0  0  0  0  0  0  0  0  0  0  0  0
   -0.9921   -3.6622   -0.8748 N   0  0  0  0  0  0  0  0  0  0  0  0
   -0.7956   -4.5083   -2.0381 C   0  0  0  0  0  0  0  0  0  0  0  0
   -2.3845   -3.2882   -0.7091 C   0  0  0  0  0  0  0  0  0  0  0  0
    4.3467   -0.5065   -3.9051 H   0  0  0  0  0  0  0  0  0  0  0  0
    3.2594   -1.8716   -3.5353 H   0  0  0  0  0  0  0  0  0  0  0  0
    4.9112   -1.8565   -2.8870 H   0  0  0  0  0  0  0  0  0  0  0  0
    3.4542    3.2042   -1.1917 H   0  0  0  0  0  0  0  0  0  0  0  0
    3.5638    2.8676    0.5646 H   0  0  0  0  0  0  0  0  0  0  0  0
    1.9640    2.9446   -0.2335 H   0  0  0  0  0  0  0  0  0  0  0  0
    2.9514    0.5983    2.1748 H   0  0  0  0  0  0  0  0  0  0  0  0
    1.7550   -0.6628    1.7430 H   0  0  0  0  0  0  0  0  0  0  0  0
    1.3830    1.0583    1.4789 H   0  0  0  0  0  0  0  0  0  0  0  0
    3.5416   -2.6910    0.4728 H   0  0  0  0  0  0  0  0  0  0  0  0
    3.0934   -3.0480   -1.1934 H   0  0  0  0  0  0  0  0  0  0  0  0
    0.7968   -2.3052   -0.5169 H   0  0  0  0  0  0  0  0  0  0  0  0
    1.5634   -4.7130   -0.4194 H   0  0  0  0  0  0  0  0  0  0  0  0
    1.2174   -3.9746    2.5305 H   0  0  0  0  0  0  0  0  0  0  0  0
    2.7733   -4.2954    1.7737 H   0  0  0  0  0  0  0  0  0  0  0  0
    0.5117   -6.3466    2.0207 H   0  0  0  0  0  0  0  0  0  0  0  0
    3.4086   -6.7010    1.0429 H   0  0  0  0  0  0  0  0  0  0  0  0
    1.9486   -6.8643    0.0400 H   0  0  0  0  0  0  0  0  0  0  0  0
    2.2558   -8.0205    1.3510 H   0  0  0  0  0  0  0  0  0  0  0  0
    3.1303   -6.0679    3.6046 H   0  0  0  0  0  0  0  0  0  0  0  0
    1.9503   -7.3899    3.7683 H   0  0  0  0  0  0  0  0  0  0  0  0
    1.4989   -5.7293    4.2272 H   0  0  0  0  0  0  0  0  0  0  0  0
   -0.7983   -3.6243    1.1946 H   0  0  0  0  0  0  0  0  0  0  0  0
   -0.6939   -5.2616    0.5070 H   0  0  0  0  0  0  0  0  0  0  0  0
    0.2739   -4.7084   -2.1996 H   0  0  0  0  0  0  0  0  0  0  0  0
   -1.1787   -4.0048   -2.9397 H   0  0  0  0  0  0  0  0  0  0  0  0
   -1.3142   -5.4916   -1.9516 H   0  0  0  0  0  0  0  0  0  0  0  0
   -2.4908   -2.5743    0.1224 H   0  0  0  0  0  0  0  0  0  0  0  0
   -3.0525   -4.1561   -0.5005 H   0  0  0  0  0  0  0  0  0  0  0  0
   -2.7545   -2.7982   -1.6240 H   0  0  0  0  0  0  0  0  0  0  0  0
  1  2  1  0
  1 20  1  0
  1 21  1  0
  1 22  1  0
  2  3  2  0
  2  8  1  0
  3  4  1  0
  4  5  1  0
  4  6  1  0
  5 23  1  0
  5 24  1  0
  5 25  1  0
  6  7  1  0
  6  8  2  0
  7 26  1  0
  7 27  1  0
  7 28  1  0
  8  9  1  0
  9 10  1  0
  9 29  1  0
  9 30  1  0
 10 11  1  0
 10 31  1  0
 11 12  1  0
 11 16  1  0
 11 32  1  6
 12 13  1  0
 12 33  1  0
 12 34  1  0
 13 14  1  0
 13 15  1  0
 13 35  1  1
 14 36  1  0
 14 37  1  0
 14 38  1  0
 15 39  1  0
 15 40  1  0
 15 41  1  0
 16 17  1  0
 16 42  1  0
 16 43  1  0
 17 18  1  0
 17 19  1  0
 18 44  1  0
 18 45  1  0
 18 46  1  0
 19 47  1  0
 19 48  1  0
 19 49  1  0
M  END

