
     RDKit          3D

 47 51  0  0  0  0  0  0  0  0999 V2000
    2.5229    1.3438    0.1023 O   0  0  0  0  0  0  0  0  0  0  0  0
    2.3271    0.3418    0.7788 C   0  0  0  0  0  0  0  0  0  0  0  0
    1.2979   -0.6964    0.3074 C   0  0  2  0  0  0  0  0  0  0  0  0
    1.8031   -1.6655    0.1247 H   0  0  0  0  0  0  0  0  0  0  0  0
    0.6283   -0.2517   -0.9880 C   0  0  0  0  0  0  0  0  0  0  0  0
   -0.3067   -1.2333   -1.4124 O   0  0  0  0  0  0  0  0  0  0  0  0
   -1.1235   -1.7139   -0.4322 C   0  0  0  0  0  0  0  0  0  0  0  0
   -2.2782   -2.4171   -0.7929 C   0  0  0  0  0  0  0  0  0  0  0  0
   -3.1359   -2.9145    0.1895 C   0  0  0  0  0  0  0  0  0  0  0  0
   -2.8477   -2.7063    1.5436 C   0  0  0  0  0  0  0  0  0  0  0  0
   -1.6909   -2.0164    1.9116 C   0  0  0  0  0  0  0  0  0  0  0  0
   -0.8242   -1.5253    0.9311 C   0  0  0  0  0  0  0  0  0  0  0  0
    0.3125   -0.8643    1.3262 O   0  0  0  0  0  0  0  0  0  0  0  0
    2.9952    0.0949    1.9446 N   0  0  0  0  0  0  0  0  0  0  0  0
    2.9575   -1.1368    2.7347 C   0  0  0  0  0  0  0  0  0  0  0  0
    4.3203   -1.8396    2.7093 C   0  0  0  0  0  0  0  0  0  0  0  0
    5.4638   -0.8848    3.0820 C   0  0  0  0  0  0  0  0  0  0  0  0
    5.4249    0.4381    2.2844 C   0  0  1  0  0  0  0  0  0  0  0  0
    6.1187    1.1509    2.7671 H   0  0  0  0  0  0  0  0  0  0  0  0
    5.8657    0.2698    0.8582 C   0  0  0  0  0  0  0  0  0  0  0  0
    5.9489   -0.8596    0.1802 N   0  0  0  0  0  0  0  0  0  0  0  0
    6.3691   -0.6139   -1.0829 N   0  0  0  0  0  0  0  0  0  0  0  0
    6.5477    0.6936   -1.1880 C   0  0  0  0  0  0  0  0  0  0  0  0
    6.9804    1.5012   -2.2743 C   0  0  0  0  0  0  0  0  0  0  0  0
    7.0817    2.8573   -2.0942 C   0  0  0  0  0  0  0  0  0  0  0  0
    6.7552    3.4493   -0.8313 C   0  0  0  0  0  0  0  0  0  0  0  0
    6.3371    2.6731    0.2115 C   0  0  0  0  0  0  0  0  0  0  0  0
    6.2393    1.3107    0.0320 N   0  0  0  0  0  0  0  0  0  0  0  0
    4.0029    1.0491    2.3831 C   0  0  0  0  0  0  0  0  0  0  0  0
    1.3679   -0.1349   -1.7890 H   0  0  0  0  0  0  0  0  0  0  0  0
    0.1304    0.7197   -0.8293 H   0  0  0  0  0  0  0  0  0  0  0  0
   -2.4830   -2.5537   -1.8569 H   0  0  0  0  0  0  0  0  0  0  0  0
   -4.0357   -3.4599   -0.1044 H   0  0  0  0  0  0  0  0  0  0  0  0
   -3.5201   -3.0866    2.3160 H   0  0  0  0  0  0  0  0  0  0  0  0
   -1.4339   -1.8471    2.9596 H   0  0  0  0  0  0  0  0  0  0  0  0
    2.1597   -1.7921    2.3723 H   0  0  0  0  0  0  0  0  0  0  0  0
    2.6867   -0.8647    3.7726 H   0  0  0  0  0  0  0  0  0  0  0  0
    4.5067   -2.2419    1.7027 H   0  0  0  0  0  0  0  0  0  0  0  0
    4.2994   -2.6899    3.4112 H   0  0  0  0  0  0  0  0  0  0  0  0
    6.4341   -1.3830    2.9370 H   0  0  0  0  0  0  0  0  0  0  0  0
    5.3903   -0.6256    4.1533 H   0  0  0  0  0  0  0  0  0  0  0  0
    7.2178    1.0102   -3.2186 H   0  0  0  0  0  0  0  0  0  0  0  0
    7.4103    3.4982   -2.9151 H   0  0  0  0  0  0  0  0  0  0  0  0
    6.8318    4.5285   -0.6910 H   0  0  0  0  0  0  0  0  0  0  0  0
    6.0691    3.0668    1.1918 H   0  0  0  0  0  0  0  0  0  0  0  0
    3.8972    1.9516    1.7694 H   0  0  0  0  0  0  0  0  0  0  0  0
    3.8074    1.3177    3.4370 H   0  0  0  0  0  0  0  0  0  0  0  0
  1  2  2  0
  2  3  1  0
  2 14  1  0
  3  4  1  6
  3  5  1  0
  3 13  1  0
  5  6  1  0
  5 30  1  0
  5 31  1  0
  6  7  1  0
  7  8  2  0
  7 12  1  0
  8  9  1  0
  8 32  1  0
  9 10  2  0
  9 33  1  0
 10 11  1  0
 10 34  1  0
 11 12  2  0
 11 35  1  0
 12 13  1  0
 14 15  1  0
 14 29  1  0
 15 16  1  0
 15 36  1  0
 15 37  1  0
 16 17  1  0
 16 38  1  0
 16 39  1  0
 17 18  1  0
 17 40  1  0
 17 41  1  0
 18 19  1  1
 18 20  1  0
 18 29  1  0
 20 21  2  0
 20 28  1  0
 21 22  1  0
 22 23  2  0
 23 24  1  0
 23 28  1  0
 24 25  2  0
 24 42  1  0
 25 26  1  0
 25 43  1  0
 26 27  2  0
 26 44  1  0
 27 28  1  0
 27 45  1  0
 29 46  1  0
 29 47  1  0
M  END

