
     RDKit          3D

 36 36  0  0  0  0  0  0  0  0999 V2000
    0.9027   -0.4029   -0.1047 C   0  0  0  0  0  0  0  0  0  0  0  0
    2.4249   -0.2652   -0.0736 C   0  0  0  0  0  0  0  0  0  0  0  0
    2.9374    0.5936    1.0882 C   0  0  1  0  0  0  0  0  0  0  0  0
    2.5411    0.1152    2.3730 O   0  0  0  0  0  0  0  0  0  0  0  0
    2.9163   -1.1928    2.7358 C   0  0  0  0  0  0  0  0  0  0  0  0
    4.4616    0.8546    0.9977 C   0  0  1  0  0  0  0  0  0  0  0  0
    4.7694    1.5161   -0.2170 O   0  0  0  0  0  0  0  0  0  0  0  0
    5.0342    1.6130    2.2175 C   0  0  0  0  0  0  0  0  0  0  0  0
    4.5197    3.0284    2.3625 C   0  0  0  0  0  0  0  0  0  0  0  0
    3.3576    3.3176    3.0898 C   0  0  0  0  0  0  0  0  0  0  0  0
    2.8711    4.6264    3.1993 C   0  0  0  0  0  0  0  0  0  0  0  0
    3.5334    5.6913    2.5735 C   0  0  0  0  0  0  0  0  0  0  0  0
    3.1592    6.9911    2.6117 O   0  0  0  0  0  0  0  0  0  0  0  0
    2.0089    7.3474    3.3445 C   0  0  0  0  0  0  0  0  0  0  0  0
    4.6977    5.3939    1.8378 C   0  0  0  0  0  0  0  0  0  0  0  0
    5.3472    6.3987    1.2360 F   0  0  0  0  0  0  0  0  0  0  0  0
    5.1825    4.0986    1.7300 C   0  0  0  0  0  0  0  0  0  0  0  0
    0.5751   -1.0337   -0.9461 H   0  0  0  0  0  0  0  0  0  0  0  0
    0.4174    0.5811   -0.2161 H   0  0  0  0  0  0  0  0  0  0  0  0
    0.5185   -0.8495    0.8256 H   0  0  0  0  0  0  0  0  0  0  0  0
    2.7917    0.2013   -1.0006 H   0  0  0  0  0  0  0  0  0  0  0  0
    2.8991   -1.2623   -0.0376 H   0  0  0  0  0  0  0  0  0  0  0  0
    2.4417    1.5788    1.0235 H   0  0  0  0  0  0  0  0  0  0  0  0
    2.5621   -1.3510    3.7654 H   0  0  0  0  0  0  0  0  0  0  0  0
    4.0119   -1.3504    2.7247 H   0  0  0  0  0  0  0  0  0  0  0  0
    2.4545   -1.9656    2.0938 H   0  0  0  0  0  0  0  0  0  0  0  0
    4.9867   -0.1138    0.9317 H   0  0  0  0  0  0  0  0  0  0  0  0
    4.4103    2.4144   -0.1628 H   0  0  0  0  0  0  0  0  0  0  0  0
    6.1295    1.6296    2.1018 H   0  0  0  0  0  0  0  0  0  0  0  0
    4.8088    1.0400    3.1285 H   0  0  0  0  0  0  0  0  0  0  0  0
    2.8160    2.5013    3.5732 H   0  0  0  0  0  0  0  0  0  0  0  0
    1.9663    4.8108    3.7791 H   0  0  0  0  0  0  0  0  0  0  0  0
    1.8993    8.4354    3.2432 H   0  0  0  0  0  0  0  0  0  0  0  0
    2.1095    7.0954    4.4158 H   0  0  0  0  0  0  0  0  0  0  0  0
    1.1007    6.8576    2.9486 H   0  0  0  0  0  0  0  0  0  0  0  0
    6.0994    3.9386    1.1575 H   0  0  0  0  0  0  0  0  0  0  0  0
  1  2  1  0
  1 18  1  0
  1 19  1  0
  1 20  1  0
  2  3  1  0
  2 21  1  0
  2 22  1  0
  3  4  1  0
  3  6  1  0
  3 23  1  6
  4  5  1  0
  5 24  1  0
  5 25  1  0
  5 26  1  0
  6  7  1  0
  6  8  1  0
  6 27  1  6
  7 28  1  0
  8  9  1  0
  8 29  1  0
  8 30  1  0
  9 10  2  0
  9 17  1  0
 10 11  1  0
 10 31  1  0
 11 12  2  0
 11 32  1  0
 12 13  1  0
 12 15  1  0
 13 14  1  0
 14 33  1  0
 14 34  1  0
 14 35  1  0
 15 16  1  0
 15 17  2  0
 17 36  1  0
M  END

