
     RDKit          3D

 34 35  0  0  0  0  0  0  0  0999 V2000
    1.0279    0.4292    0.5084 O   0  0  0  0  0  0  0  0  0  0  0  0
    2.2205    0.2282    0.3366 C   0  0  0  0  0  0  0  0  0  0  0  0
    2.9986   -0.7542    1.1463 C   0  0  0  0  0  0  0  0  0  0  0  0
    2.3831   -1.4617    2.1131 C   0  0  0  0  0  0  0  0  0  0  0  0
    2.9663   -2.4637    3.0078 C   0  0  0  0  0  0  0  0  0  0  0  0
    4.3241   -2.8439    2.9753 C   0  0  0  0  0  0  0  0  0  0  0  0
    4.8175   -3.8022    3.8522 C   0  0  0  0  0  0  0  0  0  0  0  0
    3.9743   -4.4137    4.7910 C   0  0  0  0  0  0  0  0  0  0  0  0
    4.6266   -5.6070    5.8707 Cl  0  0  0  0  0  0  0  0  0  0  0  0
    2.6188   -4.0482    4.8386 C   0  0  0  0  0  0  0  0  0  0  0  0
    1.5313   -4.7767    5.9839 Cl  0  0  0  0  0  0  0  0  0  0  0  0
    2.1305   -3.0841    3.9537 C   0  0  0  0  0  0  0  0  0  0  0  0
    2.9818    0.8777   -0.6144 N   0  0  0  0  0  0  0  0  0  0  0  0
    2.5940    1.8543   -1.5485 C   0  0  0  0  0  0  0  0  0  0  0  0
    1.2801    2.3456   -1.6570 C   0  0  0  0  0  0  0  0  0  0  0  0
    0.9873    3.3203   -2.6128 C   0  0  0  0  0  0  0  0  0  0  0  0
    1.9631    3.8257   -3.4819 C   0  0  0  0  0  0  0  0  0  0  0  0
    1.6229    4.8531   -4.5436 C   0  0  0  0  0  0  0  0  0  0  0  0
    2.6894    5.7242   -4.8556 O   0  0  0  0  0  0  0  0  0  0  0  0
    3.2704    3.3308   -3.3626 C   0  0  0  0  0  0  0  0  0  0  0  0
    3.5831    2.3634   -2.4114 C   0  0  0  0  0  0  0  0  0  0  0  0
    4.0652   -0.8799    0.9341 H   0  0  0  0  0  0  0  0  0  0  0  0
    1.3143   -1.2575    2.2407 H   0  0  0  0  0  0  0  0  0  0  0  0
    5.0071   -2.3872    2.2568 H   0  0  0  0  0  0  0  0  0  0  0  0
    5.8685   -4.0944    3.8247 H   0  0  0  0  0  0  0  0  0  0  0  0
    1.0742   -2.8145    4.0071 H   0  0  0  0  0  0  0  0  0  0  0  0
    3.9605    0.6189   -0.6531 H   0  0  0  0  0  0  0  0  0  0  0  0
    0.5125    1.9636   -0.9885 H   0  0  0  0  0  0  0  0  0  0  0  0
   -0.0380    3.6977   -2.6770 H   0  0  0  0  0  0  0  0  0  0  0  0
    0.7101    5.4052   -4.2409 H   0  0  0  0  0  0  0  0  0  0  0  0
    1.3743    4.3425   -5.4909 H   0  0  0  0  0  0  0  0  0  0  0  0
    2.9489    6.1767   -4.0412 H   0  0  0  0  0  0  0  0  0  0  0  0
    4.0477    3.7203   -4.0239 H   0  0  0  0  0  0  0  0  0  0  0  0
    4.6104    1.9927   -2.3351 H   0  0  0  0  0  0  0  0  0  0  0  0
  1  2  2  0
  2  3  1  0
  2 13  1  0
  3  4  2  0
  3 22  1  0
  4  5  1  0
  4 23  1  0
  5  6  2  0
  5 12  1  0
  6  7  1  0
  6 24  1  0
  7  8  2  0
  7 25  1  0
  8  9  1  0
  8 10  1  0
 10 11  1  0
 10 12  2  0
 12 26  1  0
 13 14  1  0
 13 27  1  0
 14 15  2  0
 14 21  1  0
 15 16  1  0
 15 28  1  0
 16 17  2  0
 16 29  1  0
 17 18  1  0
 17 20  1  0
 18 19  1  0
 18 30  1  0
 18 31  1  0
 19 32  1  0
 20 21  2  0
 20 33  1  0
 21 34  1  0
M  END

