
     RDKit          3D

 48 50  0  0  0  0  0  0  0  0999 V2000
    0.4306   -0.3725    0.9077 C   0  0  0  0  0  0  0  0  0  0  0  0
    1.4659   -0.1165   -0.1880 C   0  0  0  0  0  0  0  0  0  0  0  0
    2.7638   -0.7189    0.1027 N   0  0  0  0  0  0  0  0  0  0  0  0
    2.8439   -2.1667   -0.0602 C   0  0  0  0  0  0  0  0  0  0  0  0
    2.9998   -2.6176   -1.5272 C   0  0  0  0  0  0  0  0  0  0  0  0
    4.1057   -1.8909   -2.3287 C   0  0  2  0  0  0  0  0  0  0  0  0
    5.4293   -2.5573   -2.2555 N   0  0  0  0  0  0  0  0  0  0  0  0
    5.9535   -2.9604   -0.9570 C   0  0  0  0  0  0  0  0  0  0  0  0
    6.0538   -2.7849   -3.4524 C   0  0  0  0  0  0  0  0  0  0  0  0
    5.5834   -2.4238   -4.5284 O   0  0  0  0  0  0  0  0  0  0  0  0
    7.3874   -3.5007   -3.5500 C   0  0  0  0  0  0  0  0  0  0  0  0
    8.0215   -3.6723   -4.8167 C   0  0  0  0  0  0  0  0  0  0  0  0
    9.1704   -4.3563   -4.5258 C   0  0  0  0  0  0  0  0  0  0  0  0
   10.2823   -4.8601   -5.3316 C   0  0  0  0  0  0  0  0  0  0  0  0
   10.3112   -4.6736   -6.7238 C   0  0  0  0  0  0  0  0  0  0  0  0
   11.3953   -5.1735   -7.4468 C   0  0  0  0  0  0  0  0  0  0  0  0
   12.4197   -5.8262   -6.8903 N   0  0  0  0  0  0  0  0  0  0  0  0
   12.3909   -6.0028   -5.5671 C   0  0  0  0  0  0  0  0  0  0  0  0
   11.3584   -5.5462   -4.7448 C   0  0  0  0  0  0  0  0  0  0  0  0
    9.2174   -4.5757   -3.1902 O   0  0  0  0  0  0  0  0  0  0  0  0
    8.1076   -4.0449   -2.5882 N   0  0  0  0  0  0  0  0  0  0  0  0
    4.1238   -0.3651   -2.0007 C   0  0  2  0  0  0  0  0  0  0  0  0
    5.3455    0.3618   -2.5653 C   0  0  0  0  0  0  0  0  0  0  0  0
    3.9167   -0.0631   -0.4993 C   0  0  0  0  0  0  0  0  0  0  0  0
   -0.5114    0.1516    0.6784 H   0  0  0  0  0  0  0  0  0  0  0  0
    0.8044   -0.0173    1.8806 H   0  0  0  0  0  0  0  0  0  0  0  0
    0.1906   -1.4430    1.0098 H   0  0  0  0  0  0  0  0  0  0  0  0
    1.6241    0.9714   -0.2723 H   0  0  0  0  0  0  0  0  0  0  0  0
    1.0426   -0.4330   -1.1680 H   0  0  0  0  0  0  0  0  0  0  0  0
    1.9433   -2.6321    0.3694 H   0  0  0  0  0  0  0  0  0  0  0  0
    3.6880   -2.5322    0.5482 H   0  0  0  0  0  0  0  0  0  0  0  0
    2.0505   -2.4186   -2.0522 H   0  0  0  0  0  0  0  0  0  0  0  0
    3.1468   -3.7092   -1.5848 H   0  0  0  0  0  0  0  0  0  0  0  0
    3.8503   -1.9707   -3.3909 H   0  0  0  0  0  0  0  0  0  0  0  0
    5.3260   -3.7430   -0.5001 H   0  0  0  0  0  0  0  0  0  0  0  0
    5.9821   -2.1018   -0.2701 H   0  0  0  0  0  0  0  0  0  0  0  0
    6.9661   -3.3590   -1.0539 H   0  0  0  0  0  0  0  0  0  0  0  0
    7.6392   -3.3239   -5.7698 H   0  0  0  0  0  0  0  0  0  0  0  0
    9.5051   -4.1484   -7.2398 H   0  0  0  0  0  0  0  0  0  0  0  0
   11.4337   -5.0367   -8.5339 H   0  0  0  0  0  0  0  0  0  0  0  0
   13.2389   -6.5403   -5.1264 H   0  0  0  0  0  0  0  0  0  0  0  0
   11.3864   -5.7187   -3.6681 H   0  0  0  0  0  0  0  0  0  0  0  0
    3.2327    0.0338   -2.5201 H   0  0  0  0  0  0  0  0  0  0  0  0
    6.2719    0.0499   -2.0549 H   0  0  0  0  0  0  0  0  0  0  0  0
    5.2464    1.4513   -2.4308 H   0  0  0  0  0  0  0  0  0  0  0  0
    5.4727    0.1579   -3.6387 H   0  0  0  0  0  0  0  0  0  0  0  0
    3.8167    1.0266   -0.3610 H   0  0  0  0  0  0  0  0  0  0  0  0
    4.8192   -0.3564    0.0685 H   0  0  0  0  0  0  0  0  0  0  0  0
  1  2  1  0
  1 25  1  0
  1 26  1  0
  1 27  1  0
  2  3  1  0
  2 28  1  0
  2 29  1  0
  3  4  1  0
  3 24  1  0
  4  5  1  0
  4 30  1  0
  4 31  1  0
  5  6  1  0
  5 32  1  0
  5 33  1  0
  6  7  1  0
  6 22  1  0
  6 34  1  6
  7  8  1  0
  7  9  1  0
  8 35  1  0
  8 36  1  0
  8 37  1  0
  9 10  2  0
  9 11  1  0
 11 12  1  0
 11 21  2  0
 12 13  2  0
 12 38  1  0
 13 14  1  0
 13 20  1  0
 14 15  2  0
 14 19  1  0
 15 16  1  0
 15 39  1  0
 16 17  2  0
 16 40  1  0
 17 18  1  0
 18 19  2  0
 18 41  1  0
 19 42  1  0
 20 21  1  0
 22 23  1  0
 22 24  1  0
 22 43  1  6
 23 44  1  0
 23 45  1  0
 23 46  1  0
 24 47  1  0
 24 48  1  0
M  END

