
     RDKit          3D

 31 31  0  0  0  0  0  0  0  0999 V2000
    1.2476   -0.4419    1.3609 C   0  0  0  0  0  0  0  0  0  0  0  0
    2.1233   -0.2185    0.3710 C   0  0  0  0  0  0  0  0  0  0  0  0
    2.3632    1.1645   -0.1772 C   0  0  0  0  0  0  0  0  0  0  0  0
    1.6780    1.4464   -1.8755 S   0  0  0  0  0  0  0  0  0  0  0  0
    2.9127   -1.3437   -0.2660 C   0  0  0  0  0  0  0  0  0  0  0  0
    4.3569   -1.1210   -0.2390 N   0  0  0  0  0  0  0  0  0  0  0  0
    4.9066   -1.2179    1.1020 C   0  0  0  0  0  0  0  0  0  0  0  0
    5.0818   -1.9672   -1.1880 C   0  0  0  0  0  0  0  0  0  0  0  0
    4.8130   -1.6411   -2.6302 C   0  0  0  0  0  0  0  0  0  0  0  0
    4.3764   -2.5046   -3.6666 C   0  0  0  0  0  0  0  0  0  0  0  0
    4.2695   -1.8719   -4.8328 N   0  0  0  0  0  0  0  0  0  0  0  0
    4.6234   -0.6056   -4.5766 N   0  0  0  0  0  0  0  0  0  0  0  0
    4.6617    0.3622   -5.6540 C   0  0  0  0  0  0  0  0  0  0  0  0
    4.9627   -0.4161   -3.2714 C   0  0  0  0  0  0  0  0  0  0  0  0
    0.6532    0.3678    1.7949 H   0  0  0  0  0  0  0  0  0  0  0  0
    1.0862   -1.4467    1.7630 H   0  0  0  0  0  0  0  0  0  0  0  0
    3.4398    1.3845   -0.2064 H   0  0  0  0  0  0  0  0  0  0  0  0
    1.8698    1.9241    0.4456 H   0  0  0  0  0  0  0  0  0  0  0  0
    2.5924    0.7031   -2.5408 H   0  0  0  0  0  0  0  0  0  0  0  0
    2.6079   -1.4212   -1.3231 H   0  0  0  0  0  0  0  0  0  0  0  0
    2.6354   -2.3082    0.2153 H   0  0  0  0  0  0  0  0  0  0  0  0
    4.3715   -0.5384    1.7817 H   0  0  0  0  0  0  0  0  0  0  0  0
    5.9702   -0.9310    1.0986 H   0  0  0  0  0  0  0  0  0  0  0  0
    4.8323   -2.2442    1.5307 H   0  0  0  0  0  0  0  0  0  0  0  0
    4.8717   -3.0488   -1.0211 H   0  0  0  0  0  0  0  0  0  0  0  0
    6.1570   -1.8361   -0.9779 H   0  0  0  0  0  0  0  0  0  0  0  0
    4.1336   -3.5657   -3.5971 H   0  0  0  0  0  0  0  0  0  0  0  0
    3.7454    0.2749   -6.2541 H   0  0  0  0  0  0  0  0  0  0  0  0
    5.5305    0.1881   -6.3090 H   0  0  0  0  0  0  0  0  0  0  0  0
    4.7247    1.3744   -5.2322 H   0  0  0  0  0  0  0  0  0  0  0  0
    5.2815    0.5541   -2.8955 H   0  0  0  0  0  0  0  0  0  0  0  0
  1  2  2  0
  1 15  1  0
  1 16  1  0
  2  3  1  0
  2  5  1  0
  3  4  1  0
  3 17  1  0
  3 18  1  0
  4 19  1  0
  5  6  1  0
  5 20  1  0
  5 21  1  0
  6  7  1  0
  6  8  1  0
  7 22  1  0
  7 23  1  0
  7 24  1  0
  8  9  1  0
  8 25  1  0
  8 26  1  0
  9 10  1  0
  9 14  2  0
 10 11  2  0
 10 27  1  0
 11 12  1  0
 12 13  1  0
 12 14  1  0
 13 28  1  0
 13 29  1  0
 13 30  1  0
 14 31  1  0
M  END

