
     RDKit          3D

 42 44  0  0  0  0  0  0  0  0999 V2000
    1.6117   -0.3007   -2.1921 C   0  0  0  0  0  0  0  0  0  0  0  0
    2.8741   -0.2759   -1.3870 C   0  0  0  0  0  0  0  0  0  0  0  0
    3.8925    0.4934   -1.6265 N   0  0  0  0  0  0  0  0  0  0  0  0
    4.9144    0.3001   -0.7209 C   0  0  0  0  0  0  0  0  0  0  0  0
    6.1326    1.0943   -0.8593 C   0  0  0  0  0  0  0  0  0  0  0  0
    7.1185    0.9686   -0.0501 N   0  0  0  0  0  0  0  0  0  0  0  0
    8.2013    1.7432   -0.2453 N   0  0  0  0  0  0  0  0  0  0  0  0
    9.3387    1.5994    0.5396 C   0  0  0  0  0  0  0  0  0  0  0  0
    9.4512    0.7485    1.3954 O   0  0  0  0  0  0  0  0  0  0  0  0
   10.4403    2.5778    0.2245 C   0  0  0  0  0  0  0  0  0  0  0  0
   10.2328    3.8365   -0.3630 C   0  0  0  0  0  0  0  0  0  0  0  0
   11.3070    4.6941   -0.6058 C   0  0  0  0  0  0  0  0  0  0  0  0
   12.6089    4.3134   -0.2520 C   0  0  0  0  0  0  0  0  0  0  0  0
   13.7047    5.1872   -0.4980 N   0  0  0  0  0  0  0  0  0  0  0  0
   13.9243    6.4046    0.1469 C   0  0  0  0  0  0  0  0  0  0  0  0
   13.0372    6.9177    1.2363 C   0  0  0  0  0  0  0  0  0  0  0  0
   15.0851    6.9383   -0.3747 C   0  0  0  0  0  0  0  0  0  0  0  0
   15.5816    6.0357   -1.3609 C   0  0  0  0  0  0  0  0  0  0  0  0
   14.7228    4.9574   -1.4236 C   0  0  0  0  0  0  0  0  0  0  0  0
   14.7542    3.7558   -2.3136 C   0  0  0  0  0  0  0  0  0  0  0  0
   12.8183    3.0650    0.3546 C   0  0  0  0  0  0  0  0  0  0  0  0
   11.7446    2.2101    0.5913 C   0  0  0  0  0  0  0  0  0  0  0  0
    4.6679   -0.6512    0.2451 C   0  0  0  0  0  0  0  0  0  0  0  0
    3.1015   -1.3279    0.0120 S   0  0  0  0  0  0  0  0  0  0  0  0
    1.7044    0.4297   -3.0070 H   0  0  0  0  0  0  0  0  0  0  0  0
    0.7344   -0.0380   -1.5790 H   0  0  0  0  0  0  0  0  0  0  0  0
    1.4274   -1.2962   -2.6274 H   0  0  0  0  0  0  0  0  0  0  0  0
    6.1405    1.8049   -1.7063 H   0  0  0  0  0  0  0  0  0  0  0  0
    8.2250    2.3751   -1.0472 H   0  0  0  0  0  0  0  0  0  0  0  0
    9.2256    4.1754   -0.6180 H   0  0  0  0  0  0  0  0  0  0  0  0
   11.1430    5.6665   -1.0742 H   0  0  0  0  0  0  0  0  0  0  0  0
   12.9245    6.1910    2.0593 H   0  0  0  0  0  0  0  0  0  0  0  0
   12.0202    7.1652    0.8865 H   0  0  0  0  0  0  0  0  0  0  0  0
   13.4734    7.8347    1.6572 H   0  0  0  0  0  0  0  0  0  0  0  0
   15.5334    7.8809   -0.0647 H   0  0  0  0  0  0  0  0  0  0  0  0
   16.4730    6.1608   -1.9737 H   0  0  0  0  0  0  0  0  0  0  0  0
   15.5865    3.8528   -3.0249 H   0  0  0  0  0  0  0  0  0  0  0  0
   13.8244    3.6448   -2.8979 H   0  0  0  0  0  0  0  0  0  0  0  0
   14.8991    2.8119   -1.7606 H   0  0  0  0  0  0  0  0  0  0  0  0
   13.8295    2.7799    0.6518 H   0  0  0  0  0  0  0  0  0  0  0  0
   11.8917    1.2443    1.0783 H   0  0  0  0  0  0  0  0  0  0  0  0
    5.3314   -0.9611    1.0500 H   0  0  0  0  0  0  0  0  0  0  0  0
  1  2  1  0
  1 25  1  0
  1 26  1  0
  1 27  1  0
  2  3  2  0
  2 24  1  0
  3  4  1  0
  4  5  1  0
  4 23  2  0
  5  6  2  0
  5 28  1  0
  6  7  1  0
  7  8  1  0
  7 29  1  0
  8  9  2  0
  8 10  1  0
 10 11  2  0
 10 22  1  0
 11 12  1  0
 11 30  1  0
 12 13  2  0
 12 31  1  0
 13 14  1  0
 13 21  1  0
 14 15  1  0
 14 19  1  0
 15 16  1  0
 15 17  2  0
 16 32  1  0
 16 33  1  0
 16 34  1  0
 17 18  1  0
 17 35  1  0
 18 19  2  0
 18 36  1  0
 19 20  1  0
 20 37  1  0
 20 38  1  0
 20 39  1  0
 21 22  2  0
 21 40  1  0
 22 41  1  0
 23 24  1  0
 23 42  1  0
M  END

