
     RDKit          3D

 47 48  0  0  0  0  0  0  0  0999 V2000
    3.8493   -0.8109    0.7205 O   0  0  0  0  0  0  0  0  0  0  0  0
    2.7525    0.0348    0.2443 S   0  0  1  0  0  0  0  0  0  0  0  0
    1.3517   -0.2403    0.5803 O   0  0  0  0  0  0  0  0  0  0  0  0
    3.1249    1.7160    0.8071 C   0  0  0  0  0  0  0  0  0  0  0  0
    2.0732    2.7414    0.4031 C   0  0  0  0  0  0  0  0  0  0  0  0
    2.3917    4.0314    1.0109 N   0  0  0  0  0  0  0  0  0  0  0  0
    1.1918    5.2210    0.9719 S   0  0  1  0  0  0  0  0  0  0  0  0
    1.9076    6.4498    1.3147 O   0  0  0  0  0  0  0  0  0  0  0  0
    0.3991    5.1340   -0.2553 O   0  0  0  0  0  0  0  0  0  0  0  0
    0.2089    4.6968    2.2040 N   0  0  0  0  0  0  0  0  0  0  0  0
    0.6495    4.9149    3.5971 C   0  0  0  0  0  0  0  0  0  0  0  0
   -0.6447    4.7299    4.3966 C   0  0  0  0  0  0  0  0  0  0  0  0
   -1.7195    5.2858    3.4513 C   0  0  0  0  0  0  0  0  0  0  0  0
   -1.2663    4.7986    2.0686 C   0  0  0  0  0  0  0  0  0  0  0  0
    2.8917    0.1319   -1.4391 N   0  0  0  0  0  0  0  0  0  0  0  0
    1.7533   -0.2100   -2.2991 C   0  0  0  0  0  0  0  0  0  0  0  0
    1.6651    0.7231   -3.5233 C   0  0  1  0  0  0  0  0  0  0  0  0
    2.8752    0.6617   -4.4707 C   0  0  0  0  0  0  0  0  0  0  0  0
    2.8685   -0.6019   -5.3412 C   0  0  0  0  0  0  0  0  0  0  0  0
    1.5137   -0.7337   -6.0461 C   0  0  0  0  0  0  0  0  0  0  0  0
    0.3801   -0.6656   -5.0244 C   0  0  0  0  0  0  0  0  0  0  0  0
    0.4466    0.5043   -4.2223 O   0  0  0  0  0  0  0  0  0  0  0  0
    4.1269    1.9459    0.4139 H   0  0  0  0  0  0  0  0  0  0  0  0
    3.1931    1.6218    1.9014 H   0  0  0  0  0  0  0  0  0  0  0  0
    1.0959    2.4177    0.7894 H   0  0  0  0  0  0  0  0  0  0  0  0
    1.9926    2.8009   -0.6965 H   0  0  0  0  0  0  0  0  0  0  0  0
    3.2568    4.4634    0.6838 H   0  0  0  0  0  0  0  0  0  0  0  0
    1.0571    5.9337    3.7190 H   0  0  0  0  0  0  0  0  0  0  0  0
    1.4380    4.1979    3.8717 H   0  0  0  0  0  0  0  0  0  0  0  0
   -0.6082    5.2434    5.3690 H   0  0  0  0  0  0  0  0  0  0  0  0
   -0.8220    3.6587    4.5893 H   0  0  0  0  0  0  0  0  0  0  0  0
   -1.7143    6.3881    3.4828 H   0  0  0  0  0  0  0  0  0  0  0  0
   -2.7367    4.9488    3.7005 H   0  0  0  0  0  0  0  0  0  0  0  0
   -1.5461    5.4768    1.2514 H   0  0  0  0  0  0  0  0  0  0  0  0
   -1.6843    3.8056    1.8311 H   0  0  0  0  0  0  0  0  0  0  0  0
    3.7738   -0.3095   -1.6941 H   0  0  0  0  0  0  0  0  0  0  0  0
    0.8322   -0.0914   -1.7127 H   0  0  0  0  0  0  0  0  0  0  0  0
    1.8016   -1.2706   -2.5991 H   0  0  0  0  0  0  0  0  0  0  0  0
    1.5827    1.7489   -3.1284 H   0  0  0  0  0  0  0  0  0  0  0  0
    3.8084    0.7506   -3.8897 H   0  0  0  0  0  0  0  0  0  0  0  0
    2.8334    1.5472   -5.1274 H   0  0  0  0  0  0  0  0  0  0  0  0
    3.0500   -1.4993   -4.7211 H   0  0  0  0  0  0  0  0  0  0  0  0
    3.6913   -0.5646   -6.0737 H   0  0  0  0  0  0  0  0  0  0  0  0
    1.4461   -1.6775   -6.6130 H   0  0  0  0  0  0  0  0  0  0  0  0
    1.3931    0.0906   -6.7709 H   0  0  0  0  0  0  0  0  0  0  0  0
    0.3895   -1.5790   -4.3952 H   0  0  0  0  0  0  0  0  0  0  0  0
   -0.6017   -0.6291   -5.5210 H   0  0  0  0  0  0  0  0  0  0  0  0
  1  2  2  0
  2  3  2  0
  2  4  1  0
  2 15  1  6
  4  5  1  0
  4 23  1  0
  4 24  1  0
  5  6  1  0
  5 25  1  0
  5 26  1  0
  7  6  1  6
  6 27  1  0
  7  8  2  0
  7  9  2  0
  7 10  1  0
 10 11  1  0
 10 14  1  0
 11 12  1  0
 11 28  1  0
 11 29  1  0
 12 13  1  0
 12 30  1  0
 12 31  1  0
 13 14  1  0
 13 32  1  0
 13 33  1  0
 14 34  1  0
 14 35  1  0
 15 16  1  0
 15 36  1  0
 16 17  1  0
 16 37  1  0
 16 38  1  0
 17 18  1  0
 17 22  1  0
 17 39  1  1
 18 19  1  0
 18 40  1  0
 18 41  1  0
 19 20  1  0
 19 42  1  0
 19 43  1  0
 20 21  1  0
 20 44  1  0
 20 45  1  0
 21 22  1  0
 21 46  1  0
 21 47  1  0
M  END

