
     RDKit          3D

 24 25  0  0  0  0  0  0  0  0999 V2000
    1.0838    0.4803   -0.4195 O   0  0  0  0  0  0  0  0  0  0  0  0
    2.2553    0.2314   -0.2379 C   0  0  0  0  0  0  0  0  0  0  0  0
    2.9489   -0.8777   -0.9687 C   0  0  0  0  0  0  0  0  0  0  0  0
    4.2279   -1.3280   -0.6099 C   0  0  0  0  0  0  0  0  0  0  0  0
    4.7888   -2.3842   -1.3217 C   0  0  0  0  0  0  0  0  0  0  0  0
    6.0047   -2.8236   -0.9809 F   0  0  0  0  0  0  0  0  0  0  0  0
    4.1246   -3.0029   -2.3779 C   0  0  0  0  0  0  0  0  0  0  0  0
    2.8481   -2.5402   -2.7194 C   0  0  0  0  0  0  0  0  0  0  0  0
    1.9962   -3.3000   -4.0374 Cl  0  0  0  0  0  0  0  0  0  0  0  0
    2.2522   -1.4898   -2.0238 C   0  0  0  0  0  0  0  0  0  0  0  0
    3.0381    1.0570    0.7669 C   0  0  0  0  0  0  0  0  0  0  0  0
    2.5807    1.1709    2.0863 C   0  0  0  0  0  0  0  0  0  0  0  0
    1.5337    0.4644    2.4973 F   0  0  0  0  0  0  0  0  0  0  0  0
    3.2219    2.0010    3.0082 C   0  0  0  0  0  0  0  0  0  0  0  0
    2.7873    2.0827    4.2600 F   0  0  0  0  0  0  0  0  0  0  0  0
    4.3334    2.7488    2.6074 C   0  0  0  0  0  0  0  0  0  0  0  0
    4.9432    3.5430    3.4748 F   0  0  0  0  0  0  0  0  0  0  0  0
    4.8029    2.6590    1.2941 C   0  0  0  0  0  0  0  0  0  0  0  0
    5.8531    3.3770    0.9133 F   0  0  0  0  0  0  0  0  0  0  0  0
    4.1531    1.8143    0.3918 C   0  0  0  0  0  0  0  0  0  0  0  0
    4.6092    1.7557   -0.8601 F   0  0  0  0  0  0  0  0  0  0  0  0
    4.7906   -0.8881    0.2137 H   0  0  0  0  0  0  0  0  0  0  0  0
    4.5964   -3.8259   -2.9154 H   0  0  0  0  0  0  0  0  0  0  0  0
    1.2550   -1.1338   -2.2822 H   0  0  0  0  0  0  0  0  0  0  0  0
  1  2  2  0
  2  3  1  0
  2 11  1  0
  3  4  2  0
  3 10  1  0
  4  5  1  0
  4 22  1  0
  5  6  1  0
  5  7  2  0
  7  8  1  0
  7 23  1  0
  8  9  1  0
  8 10  2  0
 10 24  1  0
 11 12  2  0
 11 20  1  0
 12 13  1  0
 12 14  1  0
 14 15  1  0
 14 16  2  0
 16 17  1  0
 16 18  1  0
 18 19  1  0
 18 20  2  0
 20 21  1  0
M  END

