
     RDKit          3D

 51 53  0  0  0  0  0  0  0  0999 V2000
    3.1748   -0.8366   -1.5025 C   0  0  0  0  0  0  0  0  0  0  0  0
    1.7977   -0.2133   -1.7944 C   0  0  1  0  0  0  0  0  0  0  0  0
    0.6509   -1.1509   -1.3753 C   0  0  0  0  0  0  0  0  0  0  0  0
    1.6637    1.1313   -1.1405 C   0  0  0  0  0  0  0  0  0  0  0  0
    1.4888    2.3976   -1.6211 C   0  0  0  0  0  0  0  0  0  0  0  0
    1.4563    3.2063   -0.4364 C   0  0  0  0  0  0  0  0  0  0  0  0
    1.2604    4.5824   -0.4350 N   0  0  0  0  0  0  0  0  0  0  0  0
    1.6707    5.4754    0.5661 C   0  0  0  0  0  0  0  0  0  0  0  0
    2.3627    5.1421    1.5034 O   0  0  0  0  0  0  0  0  0  0  0  0
    1.2497    6.7852    0.3619 N   0  0  0  0  0  0  0  0  0  0  0  0
    1.6721    7.7647    1.3649 C   0  0  0  0  0  0  0  0  0  0  0  0
    1.7625    9.1626    0.7396 C   0  0  0  0  0  0  0  0  0  0  0  0
    0.5311    9.5928    0.0743 N   0  0  0  0  0  0  0  0  0  0  0  0
   -0.5281   10.1015    0.9717 C   0  0  1  0  0  0  0  0  0  0  0  0
   -0.0880   11.4294    1.6322 C   0  0  0  0  0  0  0  0  0  0  0  0
    0.0500   12.5710    0.6172 C   0  0  0  0  0  0  0  0  0  0  0  0
   -1.2577   12.7971   -0.1525 C   0  0  0  0  0  0  0  0  0  0  0  0
   -1.7645   11.4986   -0.7944 C   0  0  0  0  0  0  0  0  0  0  0  0
   -1.8594   10.3665    0.2385 C   0  0  0  0  0  0  0  0  0  0  0  0
    0.1790    8.5893   -0.9214 C   0  0  0  0  0  0  0  0  0  0  0  0
    0.0332    7.1674   -0.3549 C   0  0  0  0  0  0  0  0  0  0  0  0
    1.5927    2.4842    0.6543 N   0  0  0  0  0  0  0  0  0  0  0  0
    1.7298    1.1753    0.2001 O   0  0  0  0  0  0  0  0  0  0  0  0
    3.2747   -1.8057   -2.0163 H   0  0  0  0  0  0  0  0  0  0  0  0
    3.3043   -1.0052   -0.4222 H   0  0  0  0  0  0  0  0  0  0  0  0
    3.9916   -0.1814   -1.8425 H   0  0  0  0  0  0  0  0  0  0  0  0
    1.7202   -0.0315   -2.8796 H   0  0  0  0  0  0  0  0  0  0  0  0
    0.6749   -1.3336   -0.2898 H   0  0  0  0  0  0  0  0  0  0  0  0
    0.7401   -2.1212   -1.8889 H   0  0  0  0  0  0  0  0  0  0  0  0
   -0.3312   -0.7198   -1.6243 H   0  0  0  0  0  0  0  0  0  0  0  0
    1.4085    2.7158   -2.6576 H   0  0  0  0  0  0  0  0  0  0  0  0
    1.0020    4.9725   -1.3306 H   0  0  0  0  0  0  0  0  0  0  0  0
    2.6436    7.4479    1.7640 H   0  0  0  0  0  0  0  0  0  0  0  0
    0.9651    7.7645    2.2184 H   0  0  0  0  0  0  0  0  0  0  0  0
    2.5733    9.1575   -0.0109 H   0  0  0  0  0  0  0  0  0  0  0  0
    2.0516    9.8859    1.5136 H   0  0  0  0  0  0  0  0  0  0  0  0
   -0.7441    9.3776    1.7874 H   0  0  0  0  0  0  0  0  0  0  0  0
    0.8494   11.3019    2.1952 H   0  0  0  0  0  0  0  0  0  0  0  0
   -0.8512   11.6925    2.3860 H   0  0  0  0  0  0  0  0  0  0  0  0
    0.8549   12.3205   -0.0940 H   0  0  0  0  0  0  0  0  0  0  0  0
    0.3549   13.4974    1.1327 H   0  0  0  0  0  0  0  0  0  0  0  0
   -1.1231   13.5771   -0.9210 H   0  0  0  0  0  0  0  0  0  0  0  0
   -2.0273   13.1786    0.5446 H   0  0  0  0  0  0  0  0  0  0  0  0
   -1.0795   11.2046   -1.6083 H   0  0  0  0  0  0  0  0  0  0  0  0
   -2.7517   11.6620   -1.2593 H   0  0  0  0  0  0  0  0  0  0  0  0
   -2.2583    9.4474   -0.2189 H   0  0  0  0  0  0  0  0  0  0  0  0
   -2.5952   10.6479    1.0117 H   0  0  0  0  0  0  0  0  0  0  0  0
    0.9881    8.5683   -1.6746 H   0  0  0  0  0  0  0  0  0  0  0  0
   -0.7395    8.8677   -1.4537 H   0  0  0  0  0  0  0  0  0  0  0  0
   -0.1740    6.4738   -1.1816 H   0  0  0  0  0  0  0  0  0  0  0  0
   -0.8434    7.1143    0.3232 H   0  0  0  0  0  0  0  0  0  0  0  0
  1  2  1  0
  1 24  1  0
  1 25  1  0
  1 26  1  0
  2  3  1  0
  2  4  1  0
  2 27  1  6
  3 28  1  0
  3 29  1  0
  3 30  1  0
  4  5  2  0
  4 23  1  0
  5  6  1  0
  5 31  1  0
  6  7  1  0
  6 22  2  0
  7  8  1  0
  7 32  1  0
  8  9  2  0
  8 10  1  0
 10 11  1  0
 10 21  1  0
 11 12  1  0
 11 33  1  0
 11 34  1  0
 12 13  1  0
 12 35  1  0
 12 36  1  0
 13 14  1  0
 13 20  1  0
 14 15  1  0
 14 19  1  0
 14 37  1  1
 15 16  1  0
 15 38  1  0
 15 39  1  0
 16 17  1  0
 16 40  1  0
 16 41  1  0
 17 18  1  0
 17 42  1  0
 17 43  1  0
 18 19  1  0
 18 44  1  0
 18 45  1  0
 19 46  1  0
 19 47  1  0
 20 21  1  0
 20 48  1  0
 20 49  1  0
 21 50  1  0
 21 51  1  0
 22 23  1  0
M  END

