
     RDKit          3D

 31 31  0  0  0  0  0  0  0  0999 V2000
    1.5083    1.1737   -0.9703 C   0  0  0  0  0  0  0  0  0  0  0  0
    2.4779    0.1725   -0.3329 C   0  0  1  0  0  0  0  0  0  0  0  0
    1.8174   -0.6780    0.7585 C   0  0  0  0  0  0  0  0  0  0  0  0
    3.1398   -0.6643   -1.3543 N   0  0  0  0  0  0  0  0  0  0  0  0
    2.3037   -1.3902   -2.2979 C   0  0  0  0  0  0  0  0  0  0  0  0
    4.5089   -0.6776   -1.3775 C   0  0  0  0  0  0  0  0  0  0  0  0
    5.2018   -0.1426   -0.5269 O   0  0  0  0  0  0  0  0  0  0  0  0
    5.2136   -1.4401   -2.5158 C   0  0  0  0  0  0  0  0  0  0  0  0
    4.8417   -0.9949   -3.8580 N   0  0  0  0  0  0  0  0  0  0  0  0
    4.8398    0.3106   -4.1258 N   0  0  0  0  0  0  0  0  0  0  0  0
    4.5677    0.4251   -5.4249 C   0  0  0  0  0  0  0  0  0  0  0  0
    4.4062   -0.8390   -6.0226 C   0  0  0  0  0  0  0  0  0  0  0  0
    4.5935   -1.7469   -4.9791 C   0  0  0  0  0  0  0  0  0  0  0  0
    4.4652   -3.2242   -4.9815 C   0  0  0  0  0  0  0  0  0  0  0  0
    4.2244   -3.8927   -4.0048 O   0  0  0  0  0  0  0  0  0  0  0  0
    4.6089   -3.8072   -6.1875 O   0  0  0  0  0  0  0  0  0  0  0  0
    1.1321    1.8703   -0.2048 H   0  0  0  0  0  0  0  0  0  0  0  0
    0.6323    0.6795   -1.4220 H   0  0  0  0  0  0  0  0  0  0  0  0
    2.0120    1.7649   -1.7508 H   0  0  0  0  0  0  0  0  0  0  0  0
    3.3009    0.7310    0.1319 H   0  0  0  0  0  0  0  0  0  0  0  0
    0.9876   -1.2902    0.3673 H   0  0  0  0  0  0  0  0  0  0  0  0
    1.4014   -0.0287    1.5452 H   0  0  0  0  0  0  0  0  0  0  0  0
    2.5525   -1.3503    1.2263 H   0  0  0  0  0  0  0  0  0  0  0  0
    1.3860   -1.7238   -1.7913 H   0  0  0  0  0  0  0  0  0  0  0  0
    2.8049   -2.2931   -2.6681 H   0  0  0  0  0  0  0  0  0  0  0  0
    2.0058   -0.7733   -3.1642 H   0  0  0  0  0  0  0  0  0  0  0  0
    5.0206   -2.5181   -2.4567 H   0  0  0  0  0  0  0  0  0  0  0  0
    6.2847   -1.2537   -2.3614 H   0  0  0  0  0  0  0  0  0  0  0  0
    4.4934    1.4107   -5.8829 H   0  0  0  0  0  0  0  0  0  0  0  0
    4.1414   -1.0562   -7.0560 H   0  0  0  0  0  0  0  0  0  0  0  0
    4.9198   -3.1635   -6.8406 H   0  0  0  0  0  0  0  0  0  0  0  0
  1  2  1  0
  1 17  1  0
  1 18  1  0
  1 19  1  0
  2  3  1  0
  2  4  1  0
  2 20  1  1
  3 21  1  0
  3 22  1  0
  3 23  1  0
  4  5  1  0
  4  6  1  0
  5 24  1  0
  5 25  1  0
  5 26  1  0
  6  7  2  0
  6  8  1  0
  8  9  1  0
  8 27  1  0
  8 28  1  0
  9 10  1  0
  9 13  1  0
 10 11  2  0
 11 12  1  0
 11 29  1  0
 12 13  2  0
 12 30  1  0
 13 14  1  0
 14 15  2  0
 14 16  1  0
 16 31  1  0
M  END

