
     RDKit          3D

 34 35  0  0  0  0  0  0  0  0999 V2000
    1.0440    0.0227    0.5654 C   0  0  0  0  0  0  0  0  0  0  0  0
    2.5088    0.0350    0.2015 C   0  0  0  0  0  0  0  0  0  0  0  0
    3.2834   -1.1337    0.2387 C   0  0  0  0  0  0  0  0  0  0  0  0
    4.6400   -1.1167   -0.0954 C   0  0  0  0  0  0  0  0  0  0  0  0
    5.2585    0.0806   -0.4755 C   0  0  0  0  0  0  0  0  0  0  0  0
    6.7438    0.1064   -0.7880 C   0  0  1  0  0  0  0  0  0  0  0  0
    7.2041   -1.0968   -1.4507 N   0  0  0  0  0  0  0  0  0  0  0  0
    7.7508   -0.7524   -2.5530 C   0  0  0  0  0  0  0  0  0  0  0  0
    8.3599   -1.6638   -3.5666 C   0  0  0  0  0  0  0  0  0  0  0  0
    9.8961   -1.5163   -3.7079 C   0  0  1  0  0  0  0  0  0  0  0  0
   10.6282   -1.9100   -2.4197 C   0  0  0  0  0  0  0  0  0  0  0  0
   10.3930   -2.3369   -4.9034 C   0  0  0  0  0  0  0  0  0  0  0  0
    7.7059    0.7495   -2.7362 C   0  0  0  0  0  0  0  0  0  0  0  0
    8.1170    1.4255   -3.6366 O   0  0  0  0  0  0  0  0  0  0  0  0
    7.0801    1.2234   -1.6310 O   0  0  0  0  0  0  0  0  0  0  0  0
    4.4963    1.2563   -0.5179 C   0  0  0  0  0  0  0  0  0  0  0  0
    3.1417    1.2280   -0.1854 C   0  0  0  0  0  0  0  0  0  0  0  0
    0.6874   -0.9959    0.7775 H   0  0  0  0  0  0  0  0  0  0  0  0
    0.4251    0.4352   -0.2486 H   0  0  0  0  0  0  0  0  0  0  0  0
    0.8497    0.6391    1.4595 H   0  0  0  0  0  0  0  0  0  0  0  0
    2.8165   -2.0791    0.5290 H   0  0  0  0  0  0  0  0  0  0  0  0
    5.2227   -2.0394   -0.0730 H   0  0  0  0  0  0  0  0  0  0  0  0
    7.3261    0.2282    0.1452 H   0  0  0  0  0  0  0  0  0  0  0  0
    7.8975   -1.4316   -4.5416 H   0  0  0  0  0  0  0  0  0  0  0  0
    8.0977   -2.7011   -3.3047 H   0  0  0  0  0  0  0  0  0  0  0  0
   10.1026   -0.4523   -3.9176 H   0  0  0  0  0  0  0  0  0  0  0  0
   10.4543   -2.9719   -2.1744 H   0  0  0  0  0  0  0  0  0  0  0  0
   10.2973   -1.3136   -1.5548 H   0  0  0  0  0  0  0  0  0  0  0  0
   11.7151   -1.7653   -2.5270 H   0  0  0  0  0  0  0  0  0  0  0  0
   10.1862   -3.4116   -4.7610 H   0  0  0  0  0  0  0  0  0  0  0  0
   11.4806   -2.2221   -5.0360 H   0  0  0  0  0  0  0  0  0  0  0  0
    9.9058   -2.0223   -5.8403 H   0  0  0  0  0  0  0  0  0  0  0  0
    4.9661    2.1935   -0.8214 H   0  0  0  0  0  0  0  0  0  0  0  0
    2.5622    2.1550   -0.2295 H   0  0  0  0  0  0  0  0  0  0  0  0
  1  2  1  0
  1 18  1  0
  1 19  1  0
  1 20  1  0
  2  3  2  0
  2 17  1  0
  3  4  1  0
  3 21  1  0
  4  5  2  0
  4 22  1  0
  5  6  1  0
  5 16  1  0
  6  7  1  0
  6 15  1  0
  6 23  1  1
  7  8  2  0
  8  9  1  0
  8 13  1  0
  9 10  1  0
  9 24  1  0
  9 25  1  0
 10 11  1  0
 10 12  1  0
 10 26  1  6
 11 27  1  0
 11 28  1  0
 11 29  1  0
 12 30  1  0
 12 31  1  0
 12 32  1  0
 13 14  2  0
 13 15  1  0
 16 17  2  0
 16 33  1  0
 17 34  1  0
M  END

