
     RDKit          3D

 35 36  0  0  0  0  0  0  0  0999 V2000
    4.1437    2.0588    1.4611 C   0  0  0  0  0  0  0  0  0  0  0  0
    3.8377    0.9774    0.4527 C   0  0  0  0  0  0  0  0  0  0  0  0
    2.8427    1.1439   -0.5197 C   0  0  0  0  0  0  0  0  0  0  0  0
    2.5749    0.1319   -1.4483 C   0  0  0  0  0  0  0  0  0  0  0  0
    3.2986   -1.0598   -1.4214 C   0  0  0  0  0  0  0  0  0  0  0  0
    4.3017   -1.2522   -0.4560 C   0  0  0  0  0  0  0  0  0  0  0  0
    5.1092   -2.5340   -0.4317 C   0  0  0  0  0  0  0  0  0  0  0  0
    4.2528   -3.7033   -0.4732 N   0  0  0  0  0  0  0  0  0  0  0  0
    4.7576   -4.9956   -0.5083 C   0  0  0  0  0  0  0  0  0  0  0  0
    6.1165   -5.2824   -0.7101 C   0  0  0  0  0  0  0  0  0  0  0  0
    6.5371   -6.6128   -0.7765 C   0  0  0  0  0  0  0  0  0  0  0  0
    5.6037   -7.6424   -0.6278 C   0  0  0  0  0  0  0  0  0  0  0  0
    5.9869   -9.1002   -0.6851 C   0  0  0  0  0  0  0  0  0  0  0  0
    4.3053   -7.3647   -0.4246 N   0  0  0  0  0  0  0  0  0  0  0  0
    3.8764   -6.1083   -0.3659 C   0  0  0  0  0  0  0  0  0  0  0  0
    2.4006   -5.8856   -0.1487 C   0  0  0  0  0  0  0  0  0  0  0  0
    4.5530   -0.2326    0.4689 C   0  0  0  0  0  0  0  0  0  0  0  0
    3.4461    2.9045    1.3722 H   0  0  0  0  0  0  0  0  0  0  0  0
    5.1657    2.4524    1.3271 H   0  0  0  0  0  0  0  0  0  0  0  0
    4.0808    1.6757    2.4930 H   0  0  0  0  0  0  0  0  0  0  0  0
    2.2687    2.0744   -0.5503 H   0  0  0  0  0  0  0  0  0  0  0  0
    1.7953    0.2784   -2.2006 H   0  0  0  0  0  0  0  0  0  0  0  0
    3.0898   -1.8508   -2.1457 H   0  0  0  0  0  0  0  0  0  0  0  0
    5.7772   -2.5328    0.4543 H   0  0  0  0  0  0  0  0  0  0  0  0
    5.7751   -2.5572   -1.3145 H   0  0  0  0  0  0  0  0  0  0  0  0
    3.3694   -3.5918    0.0106 H   0  0  0  0  0  0  0  0  0  0  0  0
    6.8478   -4.4796   -0.8153 H   0  0  0  0  0  0  0  0  0  0  0  0
    7.5933   -6.8428   -0.9372 H   0  0  0  0  0  0  0  0  0  0  0  0
    7.0661   -9.2344   -0.8498 H   0  0  0  0  0  0  0  0  0  0  0  0
    5.4436   -9.6120   -1.4965 H   0  0  0  0  0  0  0  0  0  0  0  0
    5.7102   -9.6110    0.2519 H   0  0  0  0  0  0  0  0  0  0  0  0
    1.8942   -6.8581   -0.1090 H   0  0  0  0  0  0  0  0  0  0  0  0
    1.9571   -5.2828   -0.9606 H   0  0  0  0  0  0  0  0  0  0  0  0
    2.1969   -5.3532    0.7992 H   0  0  0  0  0  0  0  0  0  0  0  0
    5.3280   -0.3825    1.2278 H   0  0  0  0  0  0  0  0  0  0  0  0
  1  2  1  0
  1 18  1  0
  1 19  1  0
  1 20  1  0
  2  3  2  0
  2 17  1  0
  3  4  1  0
  3 21  1  0
  4  5  2  0
  4 22  1  0
  5  6  1  0
  5 23  1  0
  6  7  1  0
  6 17  2  0
  7  8  1  0
  7 24  1  0
  7 25  1  0
  8  9  1  0
  8 26  1  0
  9 10  2  0
  9 15  1  0
 10 11  1  0
 10 27  1  0
 11 12  2  0
 11 28  1  0
 12 13  1  0
 12 14  1  0
 13 29  1  0
 13 30  1  0
 13 31  1  0
 14 15  2  0
 15 16  1  0
 16 32  1  0
 16 33  1  0
 16 34  1  0
 17 35  1  0
M  END

