
     RDKit          3D

 63 68  0  0  0  0  0  0  0  0999 V2000
    0.7803   -5.6934   -0.2093 O   0  0  0  0  0  0  0  0  0  0  0  0
    0.8121   -4.5279    0.1647 C   0  0  0  0  0  0  0  0  0  0  0  0
    0.0547   -3.5314   -0.3768 N   0  0  0  0  0  0  0  0  0  0  0  0
   -0.8525   -3.7706   -1.4895 C   0  0  0  0  0  0  0  0  0  0  0  0
   -0.2459   -3.4945   -2.8514 C   0  0  0  0  0  0  0  0  0  0  0  0
    0.7542   -4.3218   -3.3861 C   0  0  0  0  0  0  0  0  0  0  0  0
    1.2860   -4.0141   -4.6374 C   0  0  0  0  0  0  0  0  0  0  0  0
    0.7993   -2.8895   -5.3152 C   0  0  0  0  0  0  0  0  0  0  0  0
   -0.1529   -2.0958   -4.8229 N   0  0  0  0  0  0  0  0  0  0  0  0
   -0.6552   -2.3983   -3.6235 C   0  0  0  0  0  0  0  0  0  0  0  0
    1.6998   -4.1069    1.2759 C   0  0  0  0  0  0  0  0  0  0  0  0
    2.5618   -4.8494    2.0296 C   0  0  0  0  0  0  0  0  0  0  0  0
    3.1685   -3.9349    2.9617 C   0  0  0  0  0  0  0  0  0  0  0  0
    4.1193   -4.0418    3.9963 C   0  0  0  0  0  0  0  0  0  0  0  0
    4.4860   -2.9018    4.7145 C   0  0  0  0  0  0  0  0  0  0  0  0
    5.4932   -2.9045    5.8804 C   0  0  1  0  0  0  0  0  0  0  0  0
    4.8767   -2.2526    6.9978 O   0  0  0  0  0  0  0  0  0  0  0  0
    5.9747   -4.3082    6.3162 C   0  0  0  0  0  0  0  0  0  0  0  0
    7.0642   -4.9239    5.4109 C   0  0  0  0  0  0  0  0  0  0  0  0
    8.1940   -4.0403    5.1589 N   0  0  0  0  0  0  0  0  0  0  0  0
    9.1920   -3.9620    6.2137 C   0  0  0  0  0  0  0  0  0  0  0  0
   10.5649   -3.6332    5.6778 C   0  0  0  0  0  0  0  0  0  0  0  0
   11.0714   -3.8916    4.4379 C   0  0  0  0  0  0  0  0  0  0  0  0
   12.4459   -3.4864    4.2827 C   0  0  0  0  0  0  0  0  0  0  0  0
   13.2906   -3.5929    3.1587 C   0  0  0  0  0  0  0  0  0  0  0  0
   14.6014   -3.1344    3.2348 C   0  0  0  0  0  0  0  0  0  0  0  0
   15.0971   -2.5628    4.4234 C   0  0  0  0  0  0  0  0  0  0  0  0
   14.2854   -2.4445    5.5496 C   0  0  0  0  0  0  0  0  0  0  0  0
   12.9653   -2.9070    5.4715 C   0  0  0  0  0  0  0  0  0  0  0  0
   11.7484   -2.8681    6.7334 S   0  0  0  0  0  0  0  0  0  0  0  0
    7.7402   -2.7506    4.6401 C   0  0  0  0  0  0  0  0  0  0  0  0
    6.7371   -2.0443    5.5647 C   0  0  0  0  0  0  0  0  0  0  0  0
    3.8702   -1.6590    4.3986 C   0  0  0  0  0  0  0  0  0  0  0  0
    2.9275   -1.5223    3.3846 C   0  0  0  0  0  0  0  0  0  0  0  0
    2.5990   -2.6781    2.6782 C   0  0  0  0  0  0  0  0  0  0  0  0
    1.7072   -2.7836    1.6548 O   0  0  0  0  0  0  0  0  0  0  0  0
    0.2134   -2.5817   -0.0599 H   0  0  0  0  0  0  0  0  0  0  0  0
   -1.7515   -3.1500   -1.3492 H   0  0  0  0  0  0  0  0  0  0  0  0
   -1.1556   -4.8257   -1.4245 H   0  0  0  0  0  0  0  0  0  0  0  0
    1.0987   -5.1914   -2.8196 H   0  0  0  0  0  0  0  0  0  0  0  0
    2.0634   -4.6359   -5.0877 H   0  0  0  0  0  0  0  0  0  0  0  0
    1.1991   -2.6232   -6.3011 H   0  0  0  0  0  0  0  0  0  0  0  0
   -1.4412   -1.7314   -3.2435 H   0  0  0  0  0  0  0  0  0  0  0  0
    2.7276   -5.9176    1.9138 H   0  0  0  0  0  0  0  0  0  0  0  0
    4.5480   -5.0178    4.2206 H   0  0  0  0  0  0  0  0  0  0  0  0
    4.0429   -2.7077    7.1828 H   0  0  0  0  0  0  0  0  0  0  0  0
    5.1198   -4.9997    6.4116 H   0  0  0  0  0  0  0  0  0  0  0  0
    6.3807   -4.1778    7.3325 H   0  0  0  0  0  0  0  0  0  0  0  0
    6.6342   -5.2000    4.4333 H   0  0  0  0  0  0  0  0  0  0  0  0
    7.4324   -5.8598    5.8609 H   0  0  0  0  0  0  0  0  0  0  0  0
    9.2377   -4.9480    6.7093 H   0  0  0  0  0  0  0  0  0  0  0  0
    8.9399   -3.2392    7.0206 H   0  0  0  0  0  0  0  0  0  0  0  0
   10.4742   -4.3581    3.6539 H   0  0  0  0  0  0  0  0  0  0  0  0
   12.9103   -4.0368    2.2349 H   0  0  0  0  0  0  0  0  0  0  0  0
   15.2565   -3.2177    2.3639 H   0  0  0  0  0  0  0  0  0  0  0  0
   16.1298   -2.2075    4.4641 H   0  0  0  0  0  0  0  0  0  0  0  0
   14.6705   -2.0012    6.4709 H   0  0  0  0  0  0  0  0  0  0  0  0
    7.2775   -2.9213    3.6515 H   0  0  0  0  0  0  0  0  0  0  0  0
    8.6152   -2.1058    4.4684 H   0  0  0  0  0  0  0  0  0  0  0  0
    6.4301   -1.0813    5.1286 H   0  0  0  0  0  0  0  0  0  0  0  0
    7.2089   -1.8104    6.5332 H   0  0  0  0  0  0  0  0  0  0  0  0
    4.1347   -0.7855    4.9971 H   0  0  0  0  0  0  0  0  0  0  0  0
    2.4615   -0.5622    3.1562 H   0  0  0  0  0  0  0  0  0  0  0  0
  1  2  2  0
  2  3  1  0
  2 11  1  0
  3  4  1  0
  3 37  1  0
  4  5  1  0
  4 38  1  0
  4 39  1  0
  5  6  2  0
  5 10  1  0
  6  7  1  0
  6 40  1  0
  7  8  2  0
  7 41  1  0
  8  9  1  0
  8 42  1  0
  9 10  2  0
 10 43  1  0
 11 12  2  0
 11 36  1  0
 12 13  1  0
 12 44  1  0
 13 14  2  0
 13 35  1  0
 14 15  1  0
 14 45  1  0
 15 16  1  0
 15 33  2  0
 16 17  1  1
 16 18  1  0
 16 32  1  0
 17 46  1  0
 18 19  1  0
 18 47  1  0
 18 48  1  0
 19 20  1  0
 19 49  1  0
 19 50  1  0
 20 21  1  0
 20 31  1  0
 21 22  1  0
 21 51  1  0
 21 52  1  0
 22 23  2  0
 22 30  1  0
 23 24  1  0
 23 53  1  0
 24 25  2  0
 24 29  1  0
 25 26  1  0
 25 54  1  0
 26 27  2  0
 26 55  1  0
 27 28  1  0
 27 56  1  0
 28 29  2  0
 28 57  1  0
 29 30  1  0
 31 32  1  0
 31 58  1  0
 31 59  1  0
 32 60  1  0
 32 61  1  0
 33 34  1  0
 33 62  1  0
 34 35  2  0
 34 63  1  0
 35 36  1  0
M  END

