
     RDKit          3D

 96103  0  0  0  0  0  0  0  0999 V2000
    0.3308   -0.2756    0.0637 C   0  0  0  0  0  0  0  0  0  0  0  0
    1.5915    0.1815    0.4955 O   0  0  0  0  0  0  0  0  0  0  0  0
    2.0286    1.4029    0.0939 C   0  0  0  0  0  0  0  0  0  0  0  0
    1.3103    2.2727   -0.7407 C   0  0  0  0  0  0  0  0  0  0  0  0
    1.8560    3.5102   -1.0945 C   0  0  0  0  0  0  0  0  0  0  0  0
    3.1199    3.9187   -0.6376 C   0  0  0  0  0  0  0  0  0  0  0  0
    3.6842    5.2459   -0.9595 C   0  0  0  0  0  0  0  0  0  0  0  0
    4.3189    6.0942   -0.0544 C   0  0  0  0  0  0  0  0  0  0  0  0
    4.6683    7.2793   -0.7449 C   0  0  0  0  0  0  0  0  0  0  0  0
    5.3893    8.3957   -0.2934 C   0  0  0  0  0  0  0  0  0  0  0  0
    5.8414    8.4646    1.1325 C   0  0  0  0  0  0  0  0  0  0  0  0
    7.0908    7.9238    1.5068 C   0  0  0  0  0  0  0  0  0  0  0  0
    7.9962    7.2674    0.4908 C   0  0  0  0  0  0  0  0  0  0  0  0
    7.4848    8.0021    2.8507 C   0  0  0  0  0  0  0  0  0  0  0  0
    6.6801    8.5988    3.8274 C   0  0  0  0  0  0  0  0  0  0  0  0
    7.1295    8.6924    5.2656 C   0  0  0  0  0  0  0  0  0  0  0  0
    5.4441    9.1254    3.4289 C   0  0  0  0  0  0  0  0  0  0  0  0
    5.0069    9.0715    2.0999 C   0  0  0  0  0  0  0  0  0  0  0  0
    3.6655    9.6517    1.7174 C   0  0  0  0  0  0  0  0  0  0  0  0
    5.7290    9.4241   -1.1849 C   0  0  0  0  0  0  0  0  0  0  0  0
    6.5328   10.5699   -0.9705 C   0  0  0  0  0  0  0  0  0  0  0  0
    6.6529   11.2393   -2.1855 C   0  0  0  0  0  0  0  0  0  0  0  0
    7.3767   12.5108   -2.3937 C   0  0  0  0  0  0  0  0  0  0  0  0
    8.6269   12.7239   -1.7915 C   0  0  0  0  0  0  0  0  0  0  0  0
    9.3157   13.9345   -1.9232 C   0  0  0  0  0  0  0  0  0  0  0  0
    8.7540   14.9755   -2.6765 C   0  0  0  0  0  0  0  0  0  0  0  0
    9.3343   16.1874   -2.8721 O   0  0  0  0  0  0  0  0  0  0  0  0
   10.5874   16.4542   -2.2867 C   0  0  0  0  0  0  0  0  0  0  0  0
    7.5009   14.7807   -3.2846 C   0  0  0  0  0  0  0  0  0  0  0  0
    6.8285   13.5735   -3.1445 C   0  0  0  0  0  0  0  0  0  0  0  0
    5.9012   10.4726   -3.1457 C   0  0  0  0  0  0  0  0  0  0  0  0
    5.7808   10.7608   -4.5861 C   0  0  0  0  0  0  0  0  0  0  0  0
    6.9375   11.1016   -5.3225 C   0  0  0  0  0  0  0  0  0  0  0  0
    6.8696   11.3921   -6.6774 C   0  0  0  0  0  0  0  0  0  0  0  0
    5.6325   11.3684   -7.3466 C   0  0  0  0  0  0  0  0  0  0  0  0
    5.6605   11.6717   -8.6671 O   0  0  0  0  0  0  0  0  0  0  0  0
    4.4612   11.6472   -9.4083 C   0  0  0  0  0  0  0  0  0  0  0  0
    4.4719   11.0413   -6.6287 C   0  0  0  0  0  0  0  0  0  0  0  0
    4.5528   10.7367   -5.2684 C   0  0  0  0  0  0  0  0  0  0  0  0
    5.3498    9.3988   -2.5242 N   0  0  0  0  0  0  0  0  0  0  0  0
    4.3785    8.3151   -3.1241 B   0  0  2  0  0  0  0  0  0  0  0  0
    4.8696    7.8257   -4.3118 F   0  0  0  0  0  0  0  0  0  0  0  0
    3.1138    8.9074   -3.2845 F   0  0  0  0  0  0  0  0  0  0  0  0
    4.2417    7.1605   -2.0642 N   0  0  0  0  0  0  0  0  0  0  0  0
    3.6579    5.9447   -2.2176 C   0  0  0  0  0  0  0  0  0  0  0  0
    3.1346    5.4227   -3.4939 C   0  0  0  0  0  0  0  0  0  0  0  0
    2.2573    6.1584   -4.3197 C   0  0  0  0  0  0  0  0  0  0  0  0
    1.7634    5.6144   -5.4975 C   0  0  0  0  0  0  0  0  0  0  0  0
    2.1382    4.3212   -5.9027 C   0  0  0  0  0  0  0  0  0  0  0  0
    1.6085    3.8816   -7.0710 O   0  0  0  0  0  0  0  0  0  0  0  0
    1.9543    2.6016   -7.5490 C   0  0  0  0  0  0  0  0  0  0  0  0
    3.0152    3.5781   -5.0973 C   0  0  0  0  0  0  0  0  0  0  0  0
    3.4935    4.1280   -3.9064 C   0  0  0  0  0  0  0  0  0  0  0  0
    3.8236    3.0296    0.2024 C   0  0  0  0  0  0  0  0  0  0  0  0
    3.2935    1.7964    0.5637 C   0  0  0  0  0  0  0  0  0  0  0  0
    0.1907   -1.2724    0.5037 H   0  0  0  0  0  0  0  0  0  0  0  0
    0.2772   -0.3608   -1.0371 H   0  0  0  0  0  0  0  0  0  0  0  0
   -0.4873    0.3837    0.4067 H   0  0  0  0  0  0  0  0  0  0  0  0
    0.3226    2.0039   -1.1160 H   0  0  0  0  0  0  0  0  0  0  0  0
    1.2731    4.1774   -1.7321 H   0  0  0  0  0  0  0  0  0  0  0  0
    4.4985    5.9095    1.0025 H   0  0  0  0  0  0  0  0  0  0  0  0
    8.2723    7.9657   -0.3155 H   0  0  0  0  0  0  0  0  0  0  0  0
    7.5046    6.4085    0.0065 H   0  0  0  0  0  0  0  0  0  0  0  0
    8.9228    6.9077    0.9609 H   0  0  0  0  0  0  0  0  0  0  0  0
    8.4523    7.5805    3.1393 H   0  0  0  0  0  0  0  0  0  0  0  0
    8.0072    8.0579    5.4586 H   0  0  0  0  0  0  0  0  0  0  0  0
    6.3290    8.3865    5.9583 H   0  0  0  0  0  0  0  0  0  0  0  0
    7.4040    9.7284    5.5299 H   0  0  0  0  0  0  0  0  0  0  0  0
    4.7957    9.5936    4.1759 H   0  0  0  0  0  0  0  0  0  0  0  0
    3.1564   10.0818    2.5919 H   0  0  0  0  0  0  0  0  0  0  0  0
    3.0046    8.8860    1.2805 H   0  0  0  0  0  0  0  0  0  0  0  0
    3.7701   10.4447    0.9597 H   0  0  0  0  0  0  0  0  0  0  0  0
    6.9499   10.8713   -0.0121 H   0  0  0  0  0  0  0  0  0  0  0  0
    9.0855   11.9176   -1.2133 H   0  0  0  0  0  0  0  0  0  0  0  0
   10.2871   14.0482   -1.4414 H   0  0  0  0  0  0  0  0  0  0  0  0
   10.8555   17.4803   -2.5726 H   0  0  0  0  0  0  0  0  0  0  0  0
   11.3700   15.7657   -2.6544 H   0  0  0  0  0  0  0  0  0  0  0  0
   10.5500   16.3895   -1.1838 H   0  0  0  0  0  0  0  0  0  0  0  0
    7.0718   15.6029   -3.8609 H   0  0  0  0  0  0  0  0  0  0  0  0
    5.8508   13.4521   -3.6142 H   0  0  0  0  0  0  0  0  0  0  0  0
    7.9078   11.1194   -4.8232 H   0  0  0  0  0  0  0  0  0  0  0  0
    7.7657   11.6399   -7.2496 H   0  0  0  0  0  0  0  0  0  0  0  0
    4.7262   11.9120  -10.4408 H   0  0  0  0  0  0  0  0  0  0  0  0
    3.7274   12.3811   -9.0286 H   0  0  0  0  0  0  0  0  0  0  0  0
    3.9954   10.6454   -9.4036 H   0  0  0  0  0  0  0  0  0  0  0  0
    3.4976   11.0143   -7.1168 H   0  0  0  0  0  0  0  0  0  0  0  0
    3.6432   10.4741   -4.7297 H   0  0  0  0  0  0  0  0  0  0  0  0
    1.9656    7.1673   -4.0300 H   0  0  0  0  0  0  0  0  0  0  0  0
    1.0803    6.1790   -6.1353 H   0  0  0  0  0  0  0  0  0  0  0  0
    1.4197    2.4669   -8.4991 H   0  0  0  0  0  0  0  0  0  0  0  0
    1.6463    1.8030   -6.8498 H   0  0  0  0  0  0  0  0  0  0  0  0
    3.0399    2.5105   -7.7340 H   0  0  0  0  0  0  0  0  0  0  0  0
    3.3341    2.5762   -5.3845 H   0  0  0  0  0  0  0  0  0  0  0  0
    4.1769    3.5386   -3.2925 H   0  0  0  0  0  0  0  0  0  0  0  0
    4.8147    3.3108    0.5673 H   0  0  0  0  0  0  0  0  0  0  0  0
    3.8444    1.1091    1.2091 H   0  0  0  0  0  0  0  0  0  0  0  0
  1  2  1  0
  1 56  1  0
  1 57  1  0
  1 58  1  0
  2  3  1  0
  3  4  2  0
  3 55  1  0
  4  5  1  0
  4 59  1  0
  5  6  2  0
  5 60  1  0
  6  7  1  0
  6 54  1  0
  7  8  2  0
  7 45  1  0
  8  9  1  0
  8 61  1  0
  9 10  2  0
  9 44  1  0
 10 11  1  0
 10 20  1  0
 11 12  2  0
 11 18  1  0
 12 13  1  0
 12 14  1  0
 13 62  1  0
 13 63  1  0
 13 64  1  0
 14 15  2  0
 14 65  1  0
 15 16  1  0
 15 17  1  0
 16 66  1  0
 16 67  1  0
 16 68  1  0
 17 18  2  0
 17 69  1  0
 18 19  1  0
 19 70  1  0
 19 71  1  0
 19 72  1  0
 20 21  2  0
 20 40  1  0
 21 22  1  0
 21 73  1  0
 22 23  1  0
 22 31  2  0
 23 24  2  0
 23 30  1  0
 24 25  1  0
 24 74  1  0
 25 26  2  0
 25 75  1  0
 26 27  1  0
 26 29  1  0
 27 28  1  0
 28 76  1  0
 28 77  1  0
 28 78  1  0
 29 30  2  0
 29 79  1  0
 30 80  1  0
 31 32  1  0
 31 40  1  0
 32 33  2  0
 32 39  1  0
 33 34  1  0
 33 81  1  0
 34 35  2  0
 34 82  1  0
 35 36  1  0
 35 38  1  0
 36 37  1  0
 37 83  1  0
 37 84  1  0
 37 85  1  0
 38 39  2  0
 38 86  1  0
 39 87  1  0
 40 41  1  0
 41 42  1  6
 41 43  1  0
 41 44  1  0
 44 45  1  0
 45 46  2  0
 46 47  1  0
 46 53  1  0
 47 48  2  0
 47 88  1  0
 48 49  1  0
 48 89  1  0
 49 50  2  0
 49 52  1  0
 50 51  1  0
 51 90  1  0
 51 91  1  0
 51 92  1  0
 52 53  2  0
 52 93  1  0
 53 94  1  0
 54 55  2  0
 54 95  1  0
 55 96  1  0
M  CHG  2  41  -1  50   1
M  END

