
     RDKit          3D

 50 53  0  0  0  0  0  0  0  0999 V2000
    4.6976   -1.9298    0.3001 C   0  0  0  0  0  0  0  0  0  0  0  0
    4.2372   -1.4742   -0.9965 N   0  0  0  0  0  0  0  0  0  0  0  0
    5.1095   -0.7250   -1.7364 N   0  0  0  0  0  0  0  0  0  0  0  0
    4.4646   -0.3732   -2.8305 C   0  0  0  0  0  0  0  0  0  0  0  0
    3.1404   -0.8814   -2.8429 C   0  0  0  0  0  0  0  0  0  0  0  0
    2.0406   -0.7683   -3.8021 C   0  0  0  0  0  0  0  0  0  0  0  0
    2.1041   -0.1586   -4.8646 O   0  0  0  0  0  0  0  0  0  0  0  0
    0.8445   -1.4786   -3.3246 C   0  0  0  0  0  0  0  0  0  0  0  0
    0.8106   -2.1538   -2.1454 C   0  0  0  0  0  0  0  0  0  0  0  0
    1.8716   -2.2328   -1.2538 N   0  0  0  0  0  0  0  0  0  0  0  0
    1.7490   -3.1125   -0.0950 C   0  0  0  0  0  0  0  0  0  0  0  0
    2.1227   -4.5725   -0.3776 C   0  0  1  0  0  0  0  0  0  0  0  0
    2.1266   -5.4085    0.9199 C   0  0  0  0  0  0  0  0  0  0  0  0
    2.3366   -6.8331    0.7645 N   0  0  0  0  0  0  0  0  0  0  0  0
    3.6944   -7.2890    0.5180 C   0  0  0  0  0  0  0  0  0  0  0  0
    3.9590   -8.7011    1.0173 C   0  0  0  0  0  0  0  0  0  0  0  0
    4.7027   -9.6060    0.2477 C   0  0  0  0  0  0  0  0  0  0  0  0
    4.9901  -10.8885    0.7273 C   0  0  0  0  0  0  0  0  0  0  0  0
    4.5289  -11.2847    1.9849 C   0  0  0  0  0  0  0  0  0  0  0  0
    3.7790  -10.3912    2.7586 C   0  0  0  0  0  0  0  0  0  0  0  0
    3.4974   -9.1107    2.2783 C   0  0  0  0  0  0  0  0  0  0  0  0
    1.2639   -7.5558    0.0937 C   0  0  0  0  0  0  0  0  0  0  0  0
    1.2550   -7.5412   -1.4518 C   0  0  0  0  0  0  0  0  0  0  0  0
    1.6029   -6.1827   -2.0840 C   0  0  0  0  0  0  0  0  0  0  0  0
    1.1846   -5.0645   -1.3143 O   0  0  0  0  0  0  0  0  0  0  0  0
    3.0319   -1.5874   -1.6377 C   0  0  0  0  0  0  0  0  0  0  0  0
    5.7546   -1.6455    0.3618 H   0  0  0  0  0  0  0  0  0  0  0  0
    4.6213   -3.0227    0.4053 H   0  0  0  0  0  0  0  0  0  0  0  0
    4.1555   -1.4428    1.1269 H   0  0  0  0  0  0  0  0  0  0  0  0
    4.9490    0.2341   -3.5938 H   0  0  0  0  0  0  0  0  0  0  0  0
   -0.0453   -1.4578   -3.9561 H   0  0  0  0  0  0  0  0  0  0  0  0
   -0.0776   -2.6975   -1.8232 H   0  0  0  0  0  0  0  0  0  0  0  0
    0.6994   -3.0839    0.2345 H   0  0  0  0  0  0  0  0  0  0  0  0
    2.3482   -2.7206    0.7345 H   0  0  0  0  0  0  0  0  0  0  0  0
    3.1356   -4.5979   -0.8306 H   0  0  0  0  0  0  0  0  0  0  0  0
    1.1519   -5.2571    1.4191 H   0  0  0  0  0  0  0  0  0  0  0  0
    2.8997   -5.0084    1.6007 H   0  0  0  0  0  0  0  0  0  0  0  0
    4.3716   -6.5987    1.0532 H   0  0  0  0  0  0  0  0  0  0  0  0
    3.9994   -7.2350   -0.5498 H   0  0  0  0  0  0  0  0  0  0  0  0
    5.0631   -9.3036   -0.7404 H   0  0  0  0  0  0  0  0  0  0  0  0
    5.5714  -11.5809    0.1128 H   0  0  0  0  0  0  0  0  0  0  0  0
    4.7489  -12.2872    2.3607 H   0  0  0  0  0  0  0  0  0  0  0  0
    3.4123  -10.6955    3.7426 H   0  0  0  0  0  0  0  0  0  0  0  0
    2.9032   -8.4131    2.8739 H   0  0  0  0  0  0  0  0  0  0  0  0
    0.3164   -7.1267    0.4557 H   0  0  0  0  0  0  0  0  0  0  0  0
    1.2774   -8.6065    0.4288 H   0  0  0  0  0  0  0  0  0  0  0  0
    0.2514   -7.8652   -1.7755 H   0  0  0  0  0  0  0  0  0  0  0  0
    1.9583   -8.2928   -1.8499 H   0  0  0  0  0  0  0  0  0  0  0  0
    1.1153   -6.0867   -3.0669 H   0  0  0  0  0  0  0  0  0  0  0  0
    2.6924   -6.1091   -2.2612 H   0  0  0  0  0  0  0  0  0  0  0  0
  1  2  1  0
  1 27  1  0
  1 28  1  0
  1 29  1  0
  2  3  1  0
  2 26  1  0
  3  4  2  0
  4  5  1  0
  4 30  1  0
  5  6  1  0
  5 26  2  0
  6  7  2  0
  6  8  1  0
  8  9  2  0
  8 31  1  0
  9 10  1  0
  9 32  1  0
 10 11  1  0
 10 26  1  0
 11 12  1  0
 11 33  1  0
 11 34  1  0
 12 13  1  0
 12 25  1  0
 12 35  1  6
 13 14  1  0
 13 36  1  0
 13 37  1  0
 14 15  1  0
 14 22  1  0
 15 16  1  0
 15 38  1  0
 15 39  1  0
 16 17  2  0
 16 21  1  0
 17 18  1  0
 17 40  1  0
 18 19  2  0
 18 41  1  0
 19 20  1  0
 19 42  1  0
 20 21  2  0
 20 43  1  0
 21 44  1  0
 22 23  1  0
 22 45  1  0
 22 46  1  0
 23 24  1  0
 23 47  1  0
 23 48  1  0
 24 25  1  0
 24 49  1  0
 24 50  1  0
M  END

