
     RDKit          3D

 14 14  0  0  0  0  0  0  0  0999 V2000
    0.9362    0.1721    0.0888 O   0  0  0  0  0  0  0  0  0  0  0  0
    2.0332   -0.3121    0.1571 C   0  0  0  0  0  0  0  0  0  0  0  0
    2.5301   -0.8253    1.2798 O   0  0  0  0  0  0  0  0  0  0  0  0
    2.9117   -0.4357   -1.1097 C   0  0  0  0  0  0  0  0  0  0  0  0
    4.3953   -0.4671   -0.8979 C   0  0  0  0  0  0  0  0  0  0  0  0
    4.9597   -1.0425    0.1333 N   0  0  0  0  0  0  0  0  0  0  0  0
    6.3207   -0.9570    0.0804 C   0  0  0  0  0  0  0  0  0  0  0  0
    7.3576   -1.7050    1.4663 Br  0  0  0  0  0  0  0  0  0  0  0  0
    6.8370   -0.3118   -1.0112 C   0  0  0  0  0  0  0  0  0  0  0  0
    5.5348    0.2250   -2.0204 S   0  0  0  0  0  0  0  0  0  0  0  0
    3.4661   -1.1135    1.1470 H   0  0  0  0  0  0  0  0  0  0  0  0
    2.6177    0.3758   -1.7883 H   0  0  0  0  0  0  0  0  0  0  0  0
    2.6008   -1.3779   -1.5992 H   0  0  0  0  0  0  0  0  0  0  0  0
    7.8792   -0.1257   -1.2593 H   0  0  0  0  0  0  0  0  0  0  0  0
  1  2  2  0
  2  3  1  0
  2  4  1  0
  3 11  1  0
  4  5  1  0
  4 12  1  0
  4 13  1  0
  5  6  2  0
  5 10  1  0
  6  7  1  0
  7  8  1  0
  7  9  2  0
  9 10  1  0
  9 14  1  0
M  END

