
     RDKit          3D

 28 28  0  0  0  0  0  0  0  0999 V2000
    0.7166    0.0469   -2.1895 C   0  0  0  0  0  0  0  0  0  0  0  0
    2.2382   -0.0391   -2.3333 C   0  0  0  0  0  0  0  0  0  0  0  0
    3.0253    0.6431   -1.2077 C   0  0  1  0  0  0  0  0  0  0  0  0
    2.7321    1.7130   -1.1813 H   0  0  0  0  0  0  0  0  0  0  0  0
    2.7839   -0.0422    0.0689 N   0  0  0  0  0  0  0  0  0  0  0  0
    4.5686    0.5760   -1.4204 C   0  0  1  0  0  0  0  0  0  0  0  0
    5.0158    1.1969   -0.6112 H   0  0  0  0  0  0  0  0  0  0  0  0
    4.9892   -0.7597   -1.2940 O   0  0  0  0  0  0  0  0  0  0  0  0
    5.0381    1.1585   -2.7360 C   0  0  0  0  0  0  0  0  0  0  0  0
    4.9649    2.5371   -2.9823 C   0  0  0  0  0  0  0  0  0  0  0  0
    5.3619    3.0761   -4.1371 N   0  0  0  0  0  0  0  0  0  0  0  0
    5.8417    2.3003   -5.0751 C   0  0  0  0  0  0  0  0  0  0  0  0
    6.3703    3.0659   -6.5834 Cl  0  0  0  0  0  0  0  0  0  0  0  0
    5.9847    0.8937   -4.9634 C   0  0  0  0  0  0  0  0  0  0  0  0
    6.4669    0.1209   -5.9921 N   0  0  0  0  0  0  0  0  0  0  0  0
    5.5600    0.3424   -3.7410 C   0  0  0  0  0  0  0  0  0  0  0  0
    0.2167   -0.3962   -3.0651 H   0  0  0  0  0  0  0  0  0  0  0  0
    0.3770    1.0934   -2.1099 H   0  0  0  0  0  0  0  0  0  0  0  0
    0.3391   -0.4954   -1.3059 H   0  0  0  0  0  0  0  0  0  0  0  0
    2.5334    0.4283   -3.2856 H   0  0  0  0  0  0  0  0  0  0  0  0
    2.5576   -1.0929   -2.3933 H   0  0  0  0  0  0  0  0  0  0  0  0
    1.7985   -0.2637    0.1970 H   0  0  0  0  0  0  0  0  0  0  0  0
    3.0603    0.5425    0.8582 H   0  0  0  0  0  0  0  0  0  0  0  0
    4.4024   -1.1185   -0.6000 H   0  0  0  0  0  0  0  0  0  0  0  0
    4.5870    3.2299   -2.2218 H   0  0  0  0  0  0  0  0  0  0  0  0
    6.9619    0.6049   -6.7319 H   0  0  0  0  0  0  0  0  0  0  0  0
    6.8102   -0.8030   -5.7618 H   0  0  0  0  0  0  0  0  0  0  0  0
    5.6409   -0.7312   -3.5605 H   0  0  0  0  0  0  0  0  0  0  0  0
  1  2  1  0
  1 17  1  0
  1 18  1  0
  1 19  1  0
  2  3  1  0
  2 20  1  0
  2 21  1  0
  3  4  1  1
  3  5  1  0
  3  6  1  0
  5 22  1  0
  5 23  1  0
  6  7  1  1
  6  8  1  0
  6  9  1  0
  8 24  1  0
  9 10  2  0
  9 16  1  0
 10 11  1  0
 10 25  1  0
 11 12  2  0
 12 13  1  0
 12 14  1  0
 14 15  1  0
 14 16  2  0
 15 26  1  0
 15 27  1  0
 16 28  1  0
M  END

