
     RDKit          3D

 42 43  0  0  0  0  0  0  0  0999 V2000
    1.5751   -2.0874    3.9171 C   0  0  0  0  0  0  0  0  0  0  0  0
    2.7333   -2.2609    2.9332 C   0  0  0  0  0  0  0  0  0  0  0  0
    2.5956   -1.3718    1.6930 C   0  0  0  0  0  0  0  0  0  0  0  0
    3.7553   -1.4858    0.6983 C   0  0  1  0  0  0  0  0  0  0  0  0
    3.7803   -2.7975    0.0670 N   0  0  0  0  0  0  0  0  0  0  0  0
    4.3559   -3.0898   -1.1285 C   0  0  0  0  0  0  0  0  0  0  0  0
    4.4298   -4.2208   -1.5787 O   0  0  0  0  0  0  0  0  0  0  0  0
    4.9504   -1.8895   -1.8657 C   0  0  2  0  0  0  0  0  0  0  0  0
    6.4715   -1.7730   -1.5973 C   0  0  0  0  0  0  0  0  0  0  0  0
    7.3137   -2.8978   -2.2078 C   0  0  0  0  0  0  0  0  0  0  0  0
    8.8043   -2.7573   -1.8970 C   0  0  0  0  0  0  0  0  0  0  0  0
    4.2346   -0.6440   -1.5704 N   0  0  0  0  0  0  0  0  0  0  0  0
    4.1895    0.3823   -2.6178 C   0  0  0  0  0  0  0  0  0  0  0  0
    3.0407    0.2097   -3.5912 C   0  0  1  0  0  0  0  0  0  0  0  0
    1.6637    0.7030   -3.2243 C   0  0  0  0  0  0  0  0  0  0  0  0
    2.4652    1.4240   -4.2783 C   0  0  0  0  0  0  0  0  0  0  0  0
    3.6850   -0.3625   -0.3539 C   0  0  0  0  0  0  0  0  0  0  0  0
    3.1806    0.7166   -0.0789 O   0  0  0  0  0  0  0  0  0  0  0  0
    1.7002   -2.7274    4.8045 H   0  0  0  0  0  0  0  0  0  0  0  0
    0.6109   -2.3479    3.4500 H   0  0  0  0  0  0  0  0  0  0  0  0
    1.5014   -1.0433    4.2633 H   0  0  0  0  0  0  0  0  0  0  0  0
    2.7982   -3.3266    2.6440 H   0  0  0  0  0  0  0  0  0  0  0  0
    3.6882   -2.0304    3.4397 H   0  0  0  0  0  0  0  0  0  0  0  0
    2.5351   -0.3150    1.9916 H   0  0  0  0  0  0  0  0  0  0  0  0
    1.6540   -1.5973    1.1619 H   0  0  0  0  0  0  0  0  0  0  0  0
    4.6992   -1.3120    1.2585 H   0  0  0  0  0  0  0  0  0  0  0  0
    3.4386   -3.5983    0.5908 H   0  0  0  0  0  0  0  0  0  0  0  0
    4.8015   -2.1138   -2.9328 H   0  0  0  0  0  0  0  0  0  0  0  0
    6.6409   -1.7219   -0.5062 H   0  0  0  0  0  0  0  0  0  0  0  0
    6.8085   -0.8019   -2.0000 H   0  0  0  0  0  0  0  0  0  0  0  0
    7.1614   -2.9036   -3.3022 H   0  0  0  0  0  0  0  0  0  0  0  0
    6.9412   -3.8721   -1.8540 H   0  0  0  0  0  0  0  0  0  0  0  0
    9.2097   -1.8026   -2.2730 H   0  0  0  0  0  0  0  0  0  0  0  0
    9.3870   -3.5703   -2.3580 H   0  0  0  0  0  0  0  0  0  0  0  0
    8.9933   -2.7896   -0.8107 H   0  0  0  0  0  0  0  0  0  0  0  0
    5.1510    0.3643   -3.1581 H   0  0  0  0  0  0  0  0  0  0  0  0
    4.1074    1.3555   -2.1147 H   0  0  0  0  0  0  0  0  0  0  0  0
    3.0850   -0.7060   -4.1929 H   0  0  0  0  0  0  0  0  0  0  0  0
    1.5497    1.1803   -2.2474 H   0  0  0  0  0  0  0  0  0  0  0  0
    0.8026    0.1097   -3.5447 H   0  0  0  0  0  0  0  0  0  0  0  0
    2.8843    2.4025   -4.0232 H   0  0  0  0  0  0  0  0  0  0  0  0
    2.1615    1.3301   -5.3247 H   0  0  0  0  0  0  0  0  0  0  0  0
  1  2  1  0
  1 19  1  0
  1 20  1  0
  1 21  1  0
  2  3  1  0
  2 22  1  0
  2 23  1  0
  3  4  1  0
  3 24  1  0
  3 25  1  0
  4  5  1  0
  4 17  1  0
  4 26  1  1
  5  6  1  0
  5 27  1  0
  6  7  2  0
  6  8  1  0
  8  9  1  0
  8 12  1  0
  8 28  1  6
  9 10  1  0
  9 29  1  0
  9 30  1  0
 10 11  1  0
 10 31  1  0
 10 32  1  0
 11 33  1  0
 11 34  1  0
 11 35  1  0
 12 13  1  0
 12 17  1  0
 13 14  1  0
 13 36  1  0
 13 37  1  0
 14 15  1  0
 14 16  1  0
 14 38  1  6
 15 16  1  0
 15 39  1  0
 15 40  1  0
 16 41  1  0
 16 42  1  0
 17 18  2  0
M  END

