
     RDKit          3D

 49 50  0  0  0  0  0  0  0  0999 V2000
   -0.0443   -0.4264    2.0480 C   0  0  0  0  0  0  0  0  0  0  0  0
    1.0200   -0.4680    1.1254 O   0  0  0  0  0  0  0  0  0  0  0  0
    2.0369   -1.3449    1.3240 C   0  0  0  0  0  0  0  0  0  0  0  0
    3.0722   -1.3269    0.3790 C   0  0  0  0  0  0  0  0  0  0  0  0
    4.1583   -2.1915    0.5034 C   0  0  0  0  0  0  0  0  0  0  0  0
    4.2531   -3.1042    1.5672 C   0  0  0  0  0  0  0  0  0  0  0  0
    5.4159   -4.0978    1.7301 C   0  0  1  0  0  0  0  0  0  0  0  0
    6.4985   -3.9351    0.6195 C   0  0  0  0  0  0  0  0  0  0  0  0
    7.4671   -2.3687    0.6892 S   0  0  0  0  0  0  0  0  0  0  0  0
    9.1444   -3.0215    1.0506 C   0  0  0  0  0  0  0  0  0  0  0  0
   10.0976   -1.8537    1.2711 C   0  0  0  0  0  0  0  0  0  0  0  0
   11.5313   -2.3174    1.5056 C   0  0  0  0  0  0  0  0  0  0  0  0
   11.8952   -3.4581    1.4320 O   0  0  0  0  0  0  0  0  0  0  0  0
   12.4110   -1.3333    1.8015 O   0  0  0  0  0  0  0  0  0  0  0  0
    6.1307   -3.8555    3.0945 C   0  0  0  0  0  0  0  0  0  0  0  0
    5.8246   -3.0297    3.9036 O   0  0  0  0  0  0  0  0  0  0  0  0
    7.1941   -4.6689    3.3349 O   0  0  0  0  0  0  0  0  0  0  0  0
    4.8595   -5.5421    1.6698 C   0  0  0  0  0  0  0  0  0  0  0  0
    4.3904   -6.0623    0.4451 C   0  0  0  0  0  0  0  0  0  0  0  0
    3.8517   -7.3382    0.3523 C   0  0  0  0  0  0  0  0  0  0  0  0
    3.7471   -8.1536    1.4944 C   0  0  0  0  0  0  0  0  0  0  0  0
    3.2106   -9.3831    1.3073 O   0  0  0  0  0  0  0  0  0  0  0  0
    3.0603  -10.2468    2.4124 C   0  0  0  0  0  0  0  0  0  0  0  0
    4.1884   -7.6514    2.7247 C   0  0  0  0  0  0  0  0  0  0  0  0
    4.7329   -6.3616    2.7997 C   0  0  0  0  0  0  0  0  0  0  0  0
    3.2062   -3.1103    2.5003 C   0  0  0  0  0  0  0  0  0  0  0  0
    2.1123   -2.2506    2.3943 C   0  0  0  0  0  0  0  0  0  0  0  0
   -0.7357    0.3505    1.6943 H   0  0  0  0  0  0  0  0  0  0  0  0
    0.3003   -0.1614    3.0641 H   0  0  0  0  0  0  0  0  0  0  0  0
   -0.5855   -1.3889    2.0981 H   0  0  0  0  0  0  0  0  0  0  0  0
    3.0087   -0.6194   -0.4501 H   0  0  0  0  0  0  0  0  0  0  0  0
    4.9389   -2.1268   -0.2562 H   0  0  0  0  0  0  0  0  0  0  0  0
    6.0269   -3.9937   -0.3689 H   0  0  0  0  0  0  0  0  0  0  0  0
    7.2149   -4.7677    0.6585 H   0  0  0  0  0  0  0  0  0  0  0  0
    9.5014   -3.6421    0.2152 H   0  0  0  0  0  0  0  0  0  0  0  0
    9.1056   -3.6455    1.9546 H   0  0  0  0  0  0  0  0  0  0  0  0
    9.7685   -1.2453    2.1325 H   0  0  0  0  0  0  0  0  0  0  0  0
   10.0950   -1.1766    0.3968 H   0  0  0  0  0  0  0  0  0  0  0  0
   11.9654   -0.4747    1.8382 H   0  0  0  0  0  0  0  0  0  0  0  0
    7.2472   -5.3692    2.6676 H   0  0  0  0  0  0  0  0  0  0  0  0
    4.4251   -5.4491   -0.4577 H   0  0  0  0  0  0  0  0  0  0  0  0
    3.4908   -7.7311   -0.6004 H   0  0  0  0  0  0  0  0  0  0  0  0
    2.6080  -11.1708    2.0283 H   0  0  0  0  0  0  0  0  0  0  0  0
    2.3955   -9.8164    3.1829 H   0  0  0  0  0  0  0  0  0  0  0  0
    4.0322  -10.4910    2.8781 H   0  0  0  0  0  0  0  0  0  0  0  0
    4.1147   -8.2450    3.6359 H   0  0  0  0  0  0  0  0  0  0  0  0
    5.0559   -6.0078    3.7812 H   0  0  0  0  0  0  0  0  0  0  0  0
    3.2380   -3.8040    3.3420 H   0  0  0  0  0  0  0  0  0  0  0  0
    1.3287   -2.2952    3.1508 H   0  0  0  0  0  0  0  0  0  0  0  0
  1  2  1  0
  1 28  1  0
  1 29  1  0
  1 30  1  0
  2  3  1  0
  3  4  2  0
  3 27  1  0
  4  5  1  0
  4 31  1  0
  5  6  2  0
  5 32  1  0
  6  7  1  0
  6 26  1  0
  7  8  1  0
  7 15  1  1
  7 18  1  0
  8  9  1  0
  8 33  1  0
  8 34  1  0
  9 10  1  0
 10 11  1  0
 10 35  1  0
 10 36  1  0
 11 12  1  0
 11 37  1  0
 11 38  1  0
 12 13  2  0
 12 14  1  0
 14 39  1  0
 15 16  2  0
 15 17  1  0
 17 40  1  0
 18 19  2  0
 18 25  1  0
 19 20  1  0
 19 41  1  0
 20 21  2  0
 20 42  1  0
 21 22  1  0
 21 24  1  0
 22 23  1  0
 23 43  1  0
 23 44  1  0
 23 45  1  0
 24 25  2  0
 24 46  1  0
 25 47  1  0
 26 27  2  0
 26 48  1  0
 27 49  1  0
M  END

