
     RDKit          3D

 43 43  0  0  0  0  0  0  0  0999 V2000
    5.8536   -1.3134    0.3839 C   0  0  0  0  0  0  0  0  0  0  0  0
    4.5833   -1.1324   -0.0131 C   0  0  0  0  0  0  0  0  0  0  0  0
    3.4737   -0.6794    0.9094 C   0  0  0  0  0  0  0  0  0  0  0  0
    2.4840   -1.7878    1.3252 C   0  0  0  0  0  0  0  0  0  0  0  0
    3.0845   -2.8801    2.2142 C   0  0  0  0  0  0  0  0  0  0  0  0
    2.0774   -3.9628    2.6144 C   0  0  0  0  0  0  0  0  0  0  0  0
    2.6662   -5.0570    3.5098 C   0  0  0  0  0  0  0  0  0  0  0  0
    1.6608   -6.1417    3.9069 C   0  0  0  0  0  0  0  0  0  0  0  0
    2.2481   -7.2360    4.8038 C   0  0  0  0  0  0  0  0  0  0  0  0
    1.2377   -8.3154    5.1950 C   0  0  0  0  0  0  0  0  0  0  0  0
    4.2964   -1.4064   -1.4629 C   0  0  0  0  0  0  0  0  0  0  0  0
    5.0875   -1.8492   -2.2568 O   0  0  0  0  0  0  0  0  0  0  0  0
    3.0114   -1.0707   -1.7733 O   0  0  0  0  0  0  0  0  0  0  0  0
    2.4495   -1.2000   -3.0361 C   0  0  0  0  0  0  0  0  0  0  0  0
    1.0650   -1.4058   -3.0457 C   0  0  0  0  0  0  0  0  0  0  0  0
    0.3859   -1.4948   -4.2613 C   0  0  0  0  0  0  0  0  0  0  0  0
    1.0849   -1.3778   -5.4672 C   0  0  0  0  0  0  0  0  0  0  0  0
    2.4661   -1.1682   -5.4439 C   0  0  0  0  0  0  0  0  0  0  0  0
    3.1628   -1.0767   -4.2344 C   0  0  0  0  0  0  0  0  0  0  0  0
    6.1554   -1.1268    1.4177 H   0  0  0  0  0  0  0  0  0  0  0  0
    6.6136   -1.6493   -0.3253 H   0  0  0  0  0  0  0  0  0  0  0  0
    2.9098    0.1293    0.4191 H   0  0  0  0  0  0  0  0  0  0  0  0
    3.9306   -0.2479    1.8154 H   0  0  0  0  0  0  0  0  0  0  0  0
    2.0469   -2.2441    0.4205 H   0  0  0  0  0  0  0  0  0  0  0  0
    1.6427   -1.3102    1.8583 H   0  0  0  0  0  0  0  0  0  0  0  0
    3.5046   -2.4174    3.1272 H   0  0  0  0  0  0  0  0  0  0  0  0
    3.9389   -3.3525    1.6974 H   0  0  0  0  0  0  0  0  0  0  0  0
    1.6592   -4.4251    1.7009 H   0  0  0  0  0  0  0  0  0  0  0  0
    1.2192   -3.4923    3.1299 H   0  0  0  0  0  0  0  0  0  0  0  0
    3.0837   -4.5947    4.4238 H   0  0  0  0  0  0  0  0  0  0  0  0
    3.5247   -5.5265    2.9943 H   0  0  0  0  0  0  0  0  0  0  0  0
    1.2439   -6.6051    2.9930 H   0  0  0  0  0  0  0  0  0  0  0  0
    0.8011   -5.6722    4.4213 H   0  0  0  0  0  0  0  0  0  0  0  0
    2.6642   -6.7719    5.7167 H   0  0  0  0  0  0  0  0  0  0  0  0
    3.1072   -7.7039    4.2891 H   0  0  0  0  0  0  0  0  0  0  0  0
    0.3839   -7.8852    5.7453 H   0  0  0  0  0  0  0  0  0  0  0  0
    1.6941   -9.0845    5.8387 H   0  0  0  0  0  0  0  0  0  0  0  0
    0.8311   -8.8253    4.3054 H   0  0  0  0  0  0  0  0  0  0  0  0
    0.5375   -1.4886   -2.0934 H   0  0  0  0  0  0  0  0  0  0  0  0
   -0.6950   -1.6560   -4.2643 H   0  0  0  0  0  0  0  0  0  0  0  0
    0.5549   -1.4489   -6.4199 H   0  0  0  0  0  0  0  0  0  0  0  0
    3.0201   -1.0742   -6.3815 H   0  0  0  0  0  0  0  0  0  0  0  0
    4.2394   -0.9261   -4.2224 H   0  0  0  0  0  0  0  0  0  0  0  0
  1  2  2  0
  1 20  1  0
  1 21  1  0
  2  3  1  0
  2 11  1  0
  3  4  1  0
  3 22  1  0
  3 23  1  0
  4  5  1  0
  4 24  1  0
  4 25  1  0
  5  6  1  0
  5 26  1  0
  5 27  1  0
  6  7  1  0
  6 28  1  0
  6 29  1  0
  7  8  1  0
  7 30  1  0
  7 31  1  0
  8  9  1  0
  8 32  1  0
  8 33  1  0
  9 10  1  0
  9 34  1  0
  9 35  1  0
 10 36  1  0
 10 37  1  0
 10 38  1  0
 11 12  2  0
 11 13  1  0
 13 14  1  0
 14 15  2  0
 14 19  1  0
 15 16  1  0
 15 39  1  0
 16 17  2  0
 16 40  1  0
 17 18  1  0
 17 41  1  0
 18 19  2  0
 18 42  1  0
 19 43  1  0
M  END

