
     RDKit          3D

 68 72  0  0  0  0  0  0  0  0999 V2000
    0.6618   -1.8245    2.6889 C   0  0  0  0  0  0  0  0  0  0  0  0
    2.0622   -1.8711    2.7443 O   0  0  0  0  0  0  0  0  0  0  0  0
    2.6922   -0.9961    1.8328 C   0  0  0  0  0  0  0  0  0  0  0  0
    4.1820   -1.1592    1.9161 C   0  0  0  0  0  0  0  0  0  0  0  0
    4.8179   -2.3820    1.6508 C   0  0  0  0  0  0  0  0  0  0  0  0
    6.1284   -2.5563    1.7277 N   0  0  0  0  0  0  0  0  0  0  0  0
    6.8734   -1.4846    2.0813 C   0  0  0  0  0  0  0  0  0  0  0  0
    8.2312   -1.6459    2.1456 N   0  0  0  0  0  0  0  0  0  0  0  0
    8.8767   -2.9314    1.9105 C   0  0  0  0  0  0  0  0  0  0  0  0
   10.0162   -2.7965    0.8953 C   0  0  0  0  0  0  0  0  0  0  0  0
   11.0226   -1.7033    1.2978 C   0  0  1  0  0  0  0  0  0  0  0  0
   12.1133   -1.5390    0.2526 C   0  0  2  0  0  0  0  0  0  0  0  0
   11.7173   -1.2252   -0.7215 H   0  0  0  0  0  0  0  0  0  0  0  0
   13.2996   -2.4694    0.1918 C   0  0  0  0  0  0  0  0  0  0  0  0
   13.5016   -1.0139    0.5541 C   0  0  2  0  0  0  0  0  0  0  0  0
   13.9294   -0.3911   -0.2410 H   0  0  0  0  0  0  0  0  0  0  0  0
   13.9600   -0.6065    1.9406 C   0  0  0  0  0  0  0  0  0  0  0  0
   15.4721   -0.7061    2.0914 C   0  0  0  0  0  0  0  0  0  0  0  0
   15.8116   -0.2929    3.4070 O   0  0  0  0  0  0  0  0  0  0  0  0
   17.1063   -0.2809    3.7969 C   0  0  0  0  0  0  0  0  0  0  0  0
   18.1776   -0.6777    2.9813 C   0  0  0  0  0  0  0  0  0  0  0  0
   19.4674   -0.6156    3.5050 C   0  0  0  0  0  0  0  0  0  0  0  0
   20.4861   -0.9985    2.7182 F   0  0  0  0  0  0  0  0  0  0  0  0
   19.7666   -0.1903    4.7990 C   0  0  0  0  0  0  0  0  0  0  0  0
   21.1762   -0.1196    5.3097 C   0  0  0  0  0  0  0  0  0  0  0  0
   21.9155    1.1249    4.8192 C   0  0  0  0  0  0  0  0  0  0  0  0
   21.4545    1.9624    4.0640 O   0  0  0  0  0  0  0  0  0  0  0  0
   23.1967    1.2702    5.2855 N   0  0  0  0  0  0  0  0  0  0  0  0
   24.0610    2.3954    4.9240 C   0  0  0  0  0  0  0  0  0  0  0  0
   25.2508    2.0840    5.6579 O   0  0  0  0  0  0  0  0  0  0  0  0
   25.0029    0.9268    6.3158 C   0  0  0  0  0  0  0  0  0  0  0  0
   23.8500    0.4056    6.1498 N   0  0  0  0  0  0  0  0  0  0  0  0
   18.6619    0.2003    5.5672 C   0  0  0  0  0  0  0  0  0  0  0  0
   18.8852    0.6303    6.8203 F   0  0  0  0  0  0  0  0  0  0  0  0
   17.3540    0.1611    5.1080 C   0  0  0  0  0  0  0  0  0  0  0  0
   10.2697   -0.3876    1.5639 C   0  0  0  0  0  0  0  0  0  0  0  0
    9.1234   -0.5724    2.5641 C   0  0  0  0  0  0  0  0  0  0  0  0
    6.3671   -0.2684    2.3710 N   0  0  0  0  0  0  0  0  0  0  0  0
    5.0500   -0.1277    2.2895 C   0  0  0  0  0  0  0  0  0  0  0  0
    0.2718   -2.5451    3.4225 H   0  0  0  0  0  0  0  0  0  0  0  0
    0.2744   -2.0973    1.6852 H   0  0  0  0  0  0  0  0  0  0  0  0
    0.2670   -0.8184    2.9401 H   0  0  0  0  0  0  0  0  0  0  0  0
    2.4189    0.0595    2.0439 H   0  0  0  0  0  0  0  0  0  0  0  0
    2.3350   -1.2117    0.8018 H   0  0  0  0  0  0  0  0  0  0  0  0
    4.2223   -3.2602    1.3702 H   0  0  0  0  0  0  0  0  0  0  0  0
    8.1145   -3.6398    1.5685 H   0  0  0  0  0  0  0  0  0  0  0  0
    9.2821   -3.3125    2.8702 H   0  0  0  0  0  0  0  0  0  0  0  0
    9.5893   -2.5519   -0.0939 H   0  0  0  0  0  0  0  0  0  0  0  0
   10.5300   -3.7668    0.7913 H   0  0  0  0  0  0  0  0  0  0  0  0
   11.4882   -2.0218    2.2491 H   0  0  0  0  0  0  0  0  0  0  0  0
   13.6469   -2.8319   -0.7798 H   0  0  0  0  0  0  0  0  0  0  0  0
   13.3994   -3.2013    1.0012 H   0  0  0  0  0  0  0  0  0  0  0  0
   13.4946   -1.2376    2.7138 H   0  0  0  0  0  0  0  0  0  0  0  0
   13.6572    0.4323    2.1582 H   0  0  0  0  0  0  0  0  0  0  0  0
   15.9809   -0.0625    1.3491 H   0  0  0  0  0  0  0  0  0  0  0  0
   15.8101   -1.7447    1.9176 H   0  0  0  0  0  0  0  0  0  0  0  0
   18.0487   -1.0264    1.9587 H   0  0  0  0  0  0  0  0  0  0  0  0
   21.7545   -1.0019    4.9925 H   0  0  0  0  0  0  0  0  0  0  0  0
   21.1929   -0.1258    6.4090 H   0  0  0  0  0  0  0  0  0  0  0  0
   23.6479    3.3666    5.2488 H   0  0  0  0  0  0  0  0  0  0  0  0
   24.2727    2.4343    3.8409 H   0  0  0  0  0  0  0  0  0  0  0  0
   25.7999    0.5222    6.9387 H   0  0  0  0  0  0  0  0  0  0  0  0
   16.5300    0.4732    5.7492 H   0  0  0  0  0  0  0  0  0  0  0  0
    9.8587   -0.0058    0.6121 H   0  0  0  0  0  0  0  0  0  0  0  0
   10.9630    0.3809    1.9439 H   0  0  0  0  0  0  0  0  0  0  0  0
    8.5311    0.3428    2.6710 H   0  0  0  0  0  0  0  0  0  0  0  0
    9.5419   -0.8187    3.5614 H   0  0  0  0  0  0  0  0  0  0  0  0
    4.6503    0.8660    2.5349 H   0  0  0  0  0  0  0  0  0  0  0  0
  1  2  1  0
  1 40  1  0
  1 41  1  0
  1 42  1  0
  2  3  1  0
  3  4  1  0
  3 43  1  0
  3 44  1  0
  4  5  2  0
  4 39  1  0
  5  6  1  0
  5 45  1  0
  6  7  2  0
  7  8  1  0
  7 38  1  0
  8  9  1  0
  8 37  1  0
  9 10  1  0
  9 46  1  0
  9 47  1  0
 10 11  1  0
 10 48  1  0
 10 49  1  0
 11 12  1  0
 11 36  1  0
 11 50  1  1
 12 13  1  6
 12 14  1  0
 12 15  1  0
 14 15  1  0
 14 51  1  0
 14 52  1  0
 15 16  1  6
 15 17  1  0
 17 18  1  0
 17 53  1  0
 17 54  1  0
 18 19  1  0
 18 55  1  0
 18 56  1  0
 19 20  1  0
 20 21  2  0
 20 35  1  0
 21 22  1  0
 21 57  1  0
 22 23  1  0
 22 24  2  0
 24 25  1  0
 24 33  1  0
 25 26  1  0
 25 58  1  0
 25 59  1  0
 26 27  2  0
 26 28  1  0
 28 29  1  0
 28 32  1  0
 29 30  1  0
 29 60  1  0
 29 61  1  0
 30 31  1  0
 31 32  2  0
 31 62  1  0
 33 34  1  0
 33 35  2  0
 35 63  1  0
 36 37  1  0
 36 64  1  0
 36 65  1  0
 37 66  1  0
 37 67  1  0
 38 39  2  0
 39 68  1  0
M  END

