
     RDKit          3D

 37 38  0  0  0  0  0  0  0  0999 V2000
    0.8741    0.4411   -0.5301 C   0  0  0  0  0  0  0  0  0  0  0  0
    2.3700    0.2072   -0.3196 C   0  0  0  0  0  0  0  0  0  0  0  0
    2.8128   -1.2508   -0.5659 C   0  0  1  0  0  0  0  0  0  0  0  0
    2.5948   -1.7122   -1.9378 N   0  0  0  0  0  0  0  0  0  0  0  0
    4.3062   -1.4571   -0.2046 C   0  0  1  0  0  0  0  0  0  0  0  0
    4.6968   -1.0685    1.5949 S   0  0  0  0  0  0  0  0  0  0  0  0
    4.1261   -2.5017    2.5021 C   0  0  0  0  0  0  0  0  0  0  0  0
    5.0090   -3.5815    2.6875 C   0  0  0  0  0  0  0  0  0  0  0  0
    4.6532   -4.6931    3.4517 C   0  0  0  0  0  0  0  0  0  0  0  0
    3.3965   -4.7412    4.0603 C   0  0  0  0  0  0  0  0  0  0  0  0
    2.5044   -3.6795    3.9049 C   0  0  0  0  0  0  0  0  0  0  0  0
    2.8668   -2.5685    3.1344 C   0  0  0  0  0  0  0  0  0  0  0  0
    1.7032   -1.2675    3.0049 Cl  0  0  0  0  0  0  0  0  0  0  0  0
    4.9273   -2.7728   -0.6233 C   0  0  0  0  0  0  0  0  0  0  0  0
    4.2218   -3.9866   -0.5860 C   0  0  0  0  0  0  0  0  0  0  0  0
    4.8473   -5.1843   -0.9399 C   0  0  0  0  0  0  0  0  0  0  0  0
    6.1865   -5.2040   -1.3398 C   0  0  0  0  0  0  0  0  0  0  0  0
    6.8770   -3.9954   -1.3741 C   0  0  0  0  0  0  0  0  0  0  0  0
    8.1643   -3.9866   -1.7599 F   0  0  0  0  0  0  0  0  0  0  0  0
    6.2724   -2.7914   -1.0251 C   0  0  0  0  0  0  0  0  0  0  0  0
    0.6087    1.4963   -0.3602 H   0  0  0  0  0  0  0  0  0  0  0  0
    0.2761   -0.1681    0.1679 H   0  0  0  0  0  0  0  0  0  0  0  0
    0.5572    0.1869   -1.5553 H   0  0  0  0  0  0  0  0  0  0  0  0
    2.6443    0.5001    0.7046 H   0  0  0  0  0  0  0  0  0  0  0  0
    2.9497    0.8608   -0.9999 H   0  0  0  0  0  0  0  0  0  0  0  0
    2.2097   -1.9035    0.0892 H   0  0  0  0  0  0  0  0  0  0  0  0
    3.0392   -1.0790   -2.6054 H   0  0  0  0  0  0  0  0  0  0  0  0
    1.6009   -1.7202   -2.1616 H   0  0  0  0  0  0  0  0  0  0  0  0
    4.8820   -0.6459   -0.6831 H   0  0  0  0  0  0  0  0  0  0  0  0
    5.9921   -3.5288    2.2170 H   0  0  0  0  0  0  0  0  0  0  0  0
    5.3597   -5.5172    3.5745 H   0  0  0  0  0  0  0  0  0  0  0  0
    3.1064   -5.6038    4.6654 H   0  0  0  0  0  0  0  0  0  0  0  0
    1.5229   -3.6975    4.3813 H   0  0  0  0  0  0  0  0  0  0  0  0
    3.1723   -3.9976   -0.2931 H   0  0  0  0  0  0  0  0  0  0  0  0
    4.2820   -6.1191   -0.9095 H   0  0  0  0  0  0  0  0  0  0  0  0
    6.6953   -6.1263   -1.6260 H   0  0  0  0  0  0  0  0  0  0  0  0
    6.8651   -1.8745   -1.0640 H   0  0  0  0  0  0  0  0  0  0  0  0
  1  2  1  0
  1 21  1  0
  1 22  1  0
  1 23  1  0
  2  3  1  0
  2 24  1  0
  2 25  1  0
  3  4  1  0
  3  5  1  0
  3 26  1  1
  4 27  1  0
  4 28  1  0
  5  6  1  0
  5 14  1  0
  5 29  1  6
  6  7  1  0
  7  8  2  0
  7 12  1  0
  8  9  1  0
  8 30  1  0
  9 10  2  0
  9 31  1  0
 10 11  1  0
 10 32  1  0
 11 12  2  0
 11 33  1  0
 12 13  1  0
 14 15  2  0
 14 20  1  0
 15 16  1  0
 15 34  1  0
 16 17  2  0
 16 35  1  0
 17 18  1  0
 17 36  1  0
 18 19  1  0
 18 20  2  0
 20 37  1  0
M  END

