
     RDKit          3D

 51 54  0  0  0  0  0  0  0  0999 V2000
    1.2929    1.1578    1.0956 C   0  0  0  0  0  0  0  0  0  0  0  0
    2.6967    0.7810    0.6987 C   0  0  0  0  0  0  0  0  0  0  0  0
    3.5356    0.1102    1.6001 C   0  0  0  0  0  0  0  0  0  0  0  0
    4.8345   -0.2652    1.2629 C   0  0  0  0  0  0  0  0  0  0  0  0
    5.3381    0.0418   -0.0098 C   0  0  0  0  0  0  0  0  0  0  0  0
    6.7238   -0.2717   -0.4134 C   0  0  0  0  0  0  0  0  0  0  0  0
    7.3380    0.6612   -1.1790 O   0  0  0  0  0  0  0  0  0  0  0  0
    7.4397   -1.4043   -0.1438 C   0  0  0  0  0  0  0  0  0  0  0  0
    6.9689   -2.6647    0.4227 C   0  0  0  0  0  0  0  0  0  0  0  0
    5.9387   -2.9607    0.9909 O   0  0  0  0  0  0  0  0  0  0  0  0
    8.0702   -3.7017    0.1304 C   0  0  0  0  0  0  0  0  0  0  0  0
    7.9903   -4.8801    0.3951 O   0  0  0  0  0  0  0  0  0  0  0  0
    9.1161   -3.0309   -0.4900 N   0  0  0  0  0  0  0  0  0  0  0  0
   10.2840   -3.6331   -1.0111 C   0  0  0  0  0  0  0  0  0  0  0  0
   10.5637   -5.0019   -0.8128 C   0  0  0  0  0  0  0  0  0  0  0  0
   11.7129   -5.5660   -1.3586 C   0  0  0  0  0  0  0  0  0  0  0  0
   12.6155   -4.8052   -2.1080 C   0  0  0  0  0  0  0  0  0  0  0  0
   14.0406   -5.5553   -2.7678 Cl  0  0  0  0  0  0  0  0  0  0  0  0
   12.3438   -3.4439   -2.3047 C   0  0  0  0  0  0  0  0  0  0  0  0
   13.4263   -2.4348   -3.2258 Cl  0  0  0  0  0  0  0  0  0  0  0  0
   11.1938   -2.8666   -1.7619 C   0  0  0  0  0  0  0  0  0  0  0  0
    8.8811   -1.5768   -0.6015 C   0  0  2  0  0  0  0  0  0  0  0  0
    9.8589   -0.7467    0.2363 C   0  0  0  0  0  0  0  0  0  0  0  0
   10.4096    0.4323   -0.2879 C   0  0  0  0  0  0  0  0  0  0  0  0
   11.2728    1.2041    0.4932 C   0  0  0  0  0  0  0  0  0  0  0  0
   11.5966    0.8144    1.7939 C   0  0  0  0  0  0  0  0  0  0  0  0
   11.0488   -0.3651    2.3201 C   0  0  0  0  0  0  0  0  0  0  0  0
   11.3233   -0.8044    3.5743 O   0  0  0  0  0  0  0  0  0  0  0  0
   10.1813   -1.1400    1.5387 C   0  0  0  0  0  0  0  0  0  0  0  0
    4.4996    0.7225   -0.9179 C   0  0  0  0  0  0  0  0  0  0  0  0
    3.1913    1.0906   -0.5919 C   0  0  0  0  0  0  0  0  0  0  0  0
    2.3205    1.7922   -1.6043 C   0  0  0  0  0  0  0  0  0  0  0  0
    1.0729    0.8539    2.1287 H   0  0  0  0  0  0  0  0  0  0  0  0
    0.5464    0.6813    0.4375 H   0  0  0  0  0  0  0  0  0  0  0  0
    1.1272    2.2459    1.0194 H   0  0  0  0  0  0  0  0  0  0  0  0
    3.1585   -0.1286    2.5981 H   0  0  0  0  0  0  0  0  0  0  0  0
    5.4557   -0.7901    1.9856 H   0  0  0  0  0  0  0  0  0  0  0  0
    6.8162    1.4771   -1.1727 H   0  0  0  0  0  0  0  0  0  0  0  0
    9.8725   -5.6127   -0.2390 H   0  0  0  0  0  0  0  0  0  0  0  0
   11.9230   -6.6255   -1.2027 H   0  0  0  0  0  0  0  0  0  0  0  0
   11.0408   -1.8047   -1.9339 H   0  0  0  0  0  0  0  0  0  0  0  0
    8.9783   -1.2711   -1.6553 H   0  0  0  0  0  0  0  0  0  0  0  0
   10.1579    0.7463   -1.3029 H   0  0  0  0  0  0  0  0  0  0  0  0
   11.7062    2.1202    0.0836 H   0  0  0  0  0  0  0  0  0  0  0  0
   12.2779    1.4188    2.4010 H   0  0  0  0  0  0  0  0  0  0  0  0
   11.9389   -0.1964    4.0043 H   0  0  0  0  0  0  0  0  0  0  0  0
    9.7799   -2.0573    1.9743 H   0  0  0  0  0  0  0  0  0  0  0  0
    4.8623    0.9399   -1.9274 H   0  0  0  0  0  0  0  0  0  0  0  0
    2.8566    1.9594   -2.5497 H   0  0  0  0  0  0  0  0  0  0  0  0
    1.9754    2.7725   -1.2346 H   0  0  0  0  0  0  0  0  0  0  0  0
    1.4137    1.2071   -1.8328 H   0  0  0  0  0  0  0  0  0  0  0  0
  1  2  1  0
  1 33  1  0
  1 34  1  0
  1 35  1  0
  2  3  2  0
  2 31  1  0
  3  4  1  0
  3 36  1  0
  4  5  2  0
  4 37  1  0
  5  6  1  0
  5 30  1  0
  6  7  1  0
  6  8  2  0
  7 38  1  0
  8  9  1  0
  8 22  1  0
  9 10  2  0
  9 11  1  0
 11 12  2  0
 11 13  1  0
 13 14  1  0
 13 22  1  0
 14 15  2  0
 14 21  1  0
 15 16  1  0
 15 39  1  0
 16 17  2  0
 16 40  1  0
 17 18  1  0
 17 19  1  0
 19 20  1  0
 19 21  2  0
 21 41  1  0
 22 23  1  0
 22 42  1  6
 23 24  2  0
 23 29  1  0
 24 25  1  0
 24 43  1  0
 25 26  2  0
 25 44  1  0
 26 27  1  0
 26 45  1  0
 27 28  1  0
 27 29  2  0
 28 46  1  0
 29 47  1  0
 30 31  2  0
 30 48  1  0
 31 32  1  0
 32 49  1  0
 32 50  1  0
 32 51  1  0
M  END

