
     RDKit          3D

 36 37  0  0  0  0  0  0  0  0999 V2000
   -0.7345    0.2899   -2.5881 C   0  0  0  0  0  0  0  0  0  0  0  0
    0.3840    0.6214   -1.6339 C   0  0  0  0  0  0  0  0  0  0  0  0
    0.9913    1.8827   -1.6507 C   0  0  0  0  0  0  0  0  0  0  0  0
    1.9871    2.2657   -0.8513 N   0  0  0  0  0  0  0  0  0  0  0  0
    2.4288    1.3662    0.0298 C   0  0  0  0  0  0  0  0  0  0  0  0
    1.9175    0.0741    0.1588 C   0  0  0  0  0  0  0  0  0  0  0  0
    0.8701   -0.3174   -0.6909 C   0  0  0  0  0  0  0  0  0  0  0  0
    0.2816   -1.5897   -0.6677 N   0  0  0  0  0  0  0  0  0  0  0  0
    0.5529   -2.6427    0.2031 C   0  0  0  0  0  0  0  0  0  0  0  0
    1.3140   -2.5655    1.1505 O   0  0  0  0  0  0  0  0  0  0  0  0
   -0.1300   -3.8092   -0.0961 N   0  0  0  0  0  0  0  0  0  0  0  0
   -0.0232   -4.9762    0.7658 C   0  0  0  0  0  0  0  0  0  0  0  0
    0.0770   -6.1560   -0.2153 C   0  0  1  0  0  0  0  0  0  0  0  0
    1.1390   -6.3336   -0.4549 H   0  0  0  0  0  0  0  0  0  0  0  0
   -0.4976   -7.4553    0.3619 C   0  0  0  0  0  0  0  0  0  0  0  0
   -0.9753   -7.5345    1.4601 O   0  0  0  0  0  0  0  0  0  0  0  0
   -0.4393   -8.5302   -0.4450 O   0  0  0  0  0  0  0  0  0  0  0  0
   -0.6511   -5.6617   -1.5066 C   0  0  2  0  0  0  0  0  0  0  0  0
   -1.6265   -6.1554   -1.6312 H   0  0  0  0  0  0  0  0  0  0  0  0
    0.1303   -5.9602   -2.7738 C   0  0  1  0  0  0  0  0  0  0  0  0
    0.3508   -7.2982   -2.9081 F   0  0  0  0  0  0  0  0  0  0  0  0
   -0.5331   -5.5632   -3.8667 F   0  0  0  0  0  0  0  0  0  0  0  0
    1.3313   -5.3685   -2.7853 F   0  0  0  0  0  0  0  0  0  0  0  0
   -0.8478   -4.1290   -1.3152 C   0  0  0  0  0  0  0  0  0  0  0  0
   -0.9634    1.1497   -3.2337 H   0  0  0  0  0  0  0  0  0  0  0  0
   -1.6695    0.0252   -2.0609 H   0  0  0  0  0  0  0  0  0  0  0  0
   -0.4786   -0.5548   -3.2537 H   0  0  0  0  0  0  0  0  0  0  0  0
    0.6317    2.6271   -2.3735 H   0  0  0  0  0  0  0  0  0  0  0  0
    3.2469    1.6838    0.6874 H   0  0  0  0  0  0  0  0  0  0  0  0
    2.3078   -0.6167    0.9015 H   0  0  0  0  0  0  0  0  0  0  0  0
   -0.4934   -1.7088   -1.3051 H   0  0  0  0  0  0  0  0  0  0  0  0
   -0.9130   -5.0997    1.4064 H   0  0  0  0  0  0  0  0  0  0  0  0
    0.8516   -4.8746    1.4187 H   0  0  0  0  0  0  0  0  0  0  0  0
   -0.0264   -8.3175   -1.2967 H   0  0  0  0  0  0  0  0  0  0  0  0
   -1.9280   -3.9044   -1.2410 H   0  0  0  0  0  0  0  0  0  0  0  0
   -0.4482   -3.5641   -2.1708 H   0  0  0  0  0  0  0  0  0  0  0  0
  1  2  1  0
  1 25  1  0
  1 26  1  0
  1 27  1  0
  2  3  2  0
  2  7  1  0
  3  4  1  0
  3 28  1  0
  4  5  2  0
  5  6  1  0
  5 29  1  0
  6  7  2  0
  6 30  1  0
  7  8  1  0
  8  9  1  0
  8 31  1  0
  9 10  2  0
  9 11  1  0
 11 12  1  0
 11 24  1  0
 12 13  1  0
 12 32  1  0
 12 33  1  0
 13 14  1  6
 13 15  1  0
 13 18  1  0
 15 16  2  0
 15 17  1  0
 17 34  1  0
 18 19  1  6
 18 20  1  0
 18 24  1  0
 20 21  1  6
 20 22  1  0
 20 23  1  0
 24 35  1  0
 24 36  1  0
M  END

