
     RDKit          3D

 37 38  0  0  0  0  0  0  0  0999 V2000
    0.5923   -0.5994   -0.2438 C   0  0  0  0  0  0  0  0  0  0  0  0
    2.0523   -0.1760   -0.2523 C   0  0  0  0  0  0  0  0  0  0  0  0
    2.3674    0.9967   -0.3166 O   0  0  0  0  0  0  0  0  0  0  0  0
    3.0283   -1.3000   -0.1585 C   0  0  0  0  0  0  0  0  0  0  0  0
    4.3797   -1.2298   -0.0205 C   0  0  0  0  0  0  0  0  0  0  0  0
    5.1739    0.0332   -0.0910 C   0  0  0  0  0  0  0  0  0  0  0  0
    6.0302    0.3778    0.9693 C   0  0  0  0  0  0  0  0  0  0  0  0
    6.8035    1.5373    0.9167 C   0  0  0  0  0  0  0  0  0  0  0  0
    6.7541    2.3565   -0.2159 C   0  0  0  0  0  0  0  0  0  0  0  0
    7.6430    3.5717   -0.3098 C   0  0  1  0  0  0  0  0  0  0  0  0
    7.9077    4.0942    0.9003 F   0  0  0  0  0  0  0  0  0  0  0  0
    8.8303    3.2716   -0.8744 F   0  0  0  0  0  0  0  0  0  0  0  0
    7.0897    4.5408   -1.0589 F   0  0  0  0  0  0  0  0  0  0  0  0
    5.9170    2.0165   -1.2855 C   0  0  0  0  0  0  0  0  0  0  0  0
    5.1292    0.8696   -1.2184 C   0  0  0  0  0  0  0  0  0  0  0  0
    5.1575   -2.4825    0.2085 C   0  0  0  0  0  0  0  0  0  0  0  0
    6.4341   -2.6452   -0.3612 C   0  0  0  0  0  0  0  0  0  0  0  0
    7.1545   -3.8278   -0.1885 C   0  0  0  0  0  0  0  0  0  0  0  0
    6.6199   -4.8673    0.5771 C   0  0  0  0  0  0  0  0  0  0  0  0
    7.3821   -6.1512    0.7960 C   0  0  1  0  0  0  0  0  0  0  0  0
    8.5507   -6.1685    0.1359 F   0  0  0  0  0  0  0  0  0  0  0  0
    7.6533   -6.3443    2.1007 F   0  0  0  0  0  0  0  0  0  0  0  0
    6.6710   -7.2186    0.3869 F   0  0  0  0  0  0  0  0  0  0  0  0
    5.3583   -4.7161    1.1687 C   0  0  0  0  0  0  0  0  0  0  0  0
    4.6384   -3.5393    0.9848 C   0  0  0  0  0  0  0  0  0  0  0  0
   -0.0488    0.2888   -0.3088 H   0  0  0  0  0  0  0  0  0  0  0  0
    0.3556   -1.1610    0.6757 H   0  0  0  0  0  0  0  0  0  0  0  0
    0.3830   -1.2726   -1.0924 H   0  0  0  0  0  0  0  0  0  0  0  0
    2.5771   -2.2964   -0.1490 H   0  0  0  0  0  0  0  0  0  0  0  0
    6.0817   -0.2626    1.8529 H   0  0  0  0  0  0  0  0  0  0  0  0
    7.4468    1.8058    1.7565 H   0  0  0  0  0  0  0  0  0  0  0  0
    5.8714    2.6594   -2.1663 H   0  0  0  0  0  0  0  0  0  0  0  0
    4.4691    0.6190   -2.0495 H   0  0  0  0  0  0  0  0  0  0  0  0
    6.8629   -1.8413   -0.9619 H   0  0  0  0  0  0  0  0  0  0  0  0
    8.1361   -3.9425   -0.6503 H   0  0  0  0  0  0  0  0  0  0  0  0
    4.9430   -5.5184    1.7826 H   0  0  0  0  0  0  0  0  0  0  0  0
    3.6688   -3.4246    1.4731 H   0  0  0  0  0  0  0  0  0  0  0  0
  1  2  1  0
  1 26  1  0
  1 27  1  0
  1 28  1  0
  2  3  2  0
  2  4  1  0
  4  5  2  0
  4 29  1  0
  5  6  1  0
  5 16  1  0
  6  7  2  0
  6 15  1  0
  7  8  1  0
  7 30  1  0
  8  9  2  0
  8 31  1  0
  9 10  1  0
  9 14  1  0
 10 11  1  1
 10 12  1  0
 10 13  1  0
 14 15  2  0
 14 32  1  0
 15 33  1  0
 16 17  2  0
 16 25  1  0
 17 18  1  0
 17 34  1  0
 18 19  2  0
 18 35  1  0
 19 20  1  0
 19 24  1  0
 20 21  1  6
 20 22  1  0
 20 23  1  0
 24 25  2  0
 24 36  1  0
 25 37  1  0
M  END

