
     RDKit          3D

 42 42  0  0  0  0  0  0  0  0999 V2000
    5.0166   -1.6081   -1.6575 C   0  0  0  0  0  0  0  0  0  0  0  0
    4.3626   -0.6921   -0.6557 C   0  0  0  0  0  0  0  0  0  0  0  0
    5.0285    0.4091   -0.1434 C   0  0  0  0  0  0  0  0  0  0  0  0
    4.4423    1.2703    0.7989 C   0  0  0  0  0  0  0  0  0  0  0  0
    5.2639    2.3916    1.2556 N   0  0  0  0  0  0  0  0  0  0  0  0
    6.3880    2.5119    0.7824 O   0  0  0  0  0  0  0  0  0  0  0  0
    4.7971    3.1601    2.0897 O   0  0  0  0  0  0  0  0  0  0  0  0
    3.1273    1.0476    1.2660 C   0  0  0  0  0  0  0  0  0  0  0  0
    2.4021    1.9123    2.2668 C   0  0  0  0  0  0  0  0  0  0  0  0
    2.4578   -0.0642    0.7419 C   0  0  0  0  0  0  0  0  0  0  0  0
    3.0343   -0.9461   -0.1977 C   0  0  0  0  0  0  0  0  0  0  0  0
    2.3552   -2.0426   -0.6646 N   0  0  0  0  0  0  0  0  0  0  0  0
    0.9623   -2.3377   -0.3811 C   0  0  0  0  0  0  0  0  0  0  0  0
    0.5361   -3.7081   -0.9398 C   0  0  1  0  0  0  0  0  0  0  0  0
    1.3637   -4.8438   -0.3023 C   0  0  0  0  0  0  0  0  0  0  0  0
    1.0884   -4.9976    1.1235 N   0  0  0  0  0  0  0  0  0  0  0  0
   -1.0039   -3.8948   -0.8131 C   0  0  1  0  0  0  0  0  0  0  0  0
   -1.7721   -2.9737   -1.7753 C   0  0  0  0  0  0  0  0  0  0  0  0
   -1.4512   -5.3474   -1.0261 C   0  0  0  0  0  0  0  0  0  0  0  0
    6.0393   -1.2775   -1.8852 H   0  0  0  0  0  0  0  0  0  0  0  0
    4.4629   -1.6383   -2.6144 H   0  0  0  0  0  0  0  0  0  0  0  0
    5.0763   -2.6466   -1.2854 H   0  0  0  0  0  0  0  0  0  0  0  0
    6.0447    0.6357   -0.4649 H   0  0  0  0  0  0  0  0  0  0  0  0
    2.9403    1.9573    3.2244 H   0  0  0  0  0  0  0  0  0  0  0  0
    1.3902    1.5182    2.4413 H   0  0  0  0  0  0  0  0  0  0  0  0
    2.3278    2.9535    1.9217 H   0  0  0  0  0  0  0  0  0  0  0  0
    1.4386   -0.2451    1.0831 H   0  0  0  0  0  0  0  0  0  0  0  0
    2.7508   -2.5062   -1.4724 H   0  0  0  0  0  0  0  0  0  0  0  0
    0.3090   -1.5417   -0.7825 H   0  0  0  0  0  0  0  0  0  0  0  0
    0.8033   -2.3388    0.7115 H   0  0  0  0  0  0  0  0  0  0  0  0
    0.7788   -3.7165   -2.0222 H   0  0  0  0  0  0  0  0  0  0  0  0
    2.4355   -4.6657   -0.5293 H   0  0  0  0  0  0  0  0  0  0  0  0
    1.1081   -5.7886   -0.8043 H   0  0  0  0  0  0  0  0  0  0  0  0
    1.5645   -4.2767    1.6658 H   0  0  0  0  0  0  0  0  0  0  0  0
    1.4535   -5.8868    1.4627 H   0  0  0  0  0  0  0  0  0  0  0  0
   -1.2783   -3.6231    0.2216 H   0  0  0  0  0  0  0  0  0  0  0  0
   -1.5547   -3.2333   -2.8261 H   0  0  0  0  0  0  0  0  0  0  0  0
   -1.5302   -1.9087   -1.6394 H   0  0  0  0  0  0  0  0  0  0  0  0
   -2.8589   -3.0792   -1.6291 H   0  0  0  0  0  0  0  0  0  0  0  0
   -1.1193   -5.7342   -2.0057 H   0  0  0  0  0  0  0  0  0  0  0  0
   -2.5507   -5.4145   -1.0045 H   0  0  0  0  0  0  0  0  0  0  0  0
   -1.0651   -6.0096   -0.2388 H   0  0  0  0  0  0  0  0  0  0  0  0
  1  2  1  0
  1 20  1  0
  1 21  1  0
  1 22  1  0
  2  3  2  0
  2 11  1  0
  3  4  1  0
  3 23  1  0
  4  5  1  0
  4  8  2  0
  5  6  2  0
  5  7  1  0
  8  9  1  0
  8 10  1  0
  9 24  1  0
  9 25  1  0
  9 26  1  0
 10 11  2  0
 10 27  1  0
 11 12  1  0
 12 13  1  0
 12 28  1  0
 13 14  1  0
 13 29  1  0
 13 30  1  0
 14 15  1  0
 14 17  1  0
 14 31  1  6
 15 16  1  0
 15 32  1  0
 15 33  1  0
 16 34  1  0
 16 35  1  0
 17 18  1  0
 17 19  1  0
 17 36  1  1
 18 37  1  0
 18 38  1  0
 18 39  1  0
 19 40  1  0
 19 41  1  0
 19 42  1  0
M  CHG  2   5   1   7  -1
M  END

