
     RDKit          3D

 42 44  0  0  0  0  0  0  0  0999 V2000
    0.9827   -0.0039    0.2641 O   0  0  0  0  0  0  0  0  0  0  0  0
    2.1135   -0.4285    0.4689 C   0  0  0  0  0  0  0  0  0  0  0  0
    2.8509   -1.1356   -0.6877 C   0  0  0  0  0  0  0  0  0  0  0  0
    3.9253   -0.6932   -1.0769 O   0  0  0  0  0  0  0  0  0  0  0  0
    2.1943   -2.1627   -1.2968 N   0  0  0  0  0  0  0  0  0  0  0  0
    2.7449   -2.7325   -2.5227 C   0  0  0  0  0  0  0  0  0  0  0  0
    3.0156   -4.2236   -2.3316 C   0  0  0  0  0  0  0  0  0  0  0  0
    1.8200   -4.9402   -1.7383 C   0  0  0  0  0  0  0  0  0  0  0  0
    1.6820   -6.3326   -1.8620 C   0  0  0  0  0  0  0  0  0  0  0  0
    0.5906   -7.0033   -1.3120 C   0  0  0  0  0  0  0  0  0  0  0  0
   -0.3907   -6.2804   -0.6242 C   0  0  0  0  0  0  0  0  0  0  0  0
   -0.2645   -4.8981   -0.4953 C   0  0  0  0  0  0  0  0  0  0  0  0
    0.8341   -4.2165   -1.0429 C   0  0  0  0  0  0  0  0  0  0  0  0
    0.9062   -2.7065   -0.8859 C   0  0  0  0  0  0  0  0  0  0  0  0
    2.8072   -0.2311    1.6267 N   0  0  0  0  0  0  0  0  0  0  0  0
    2.2066    0.6139    2.6565 C   0  0  0  0  0  0  0  0  0  0  0  0
    3.0017    1.8867    2.9845 C   0  0  0  0  0  0  0  0  0  0  0  0
    4.3299    1.6587    3.7144 C   0  0  0  0  0  0  0  0  0  0  0  0
    5.4430    1.2806    2.8519 N   0  0  0  0  0  0  0  0  0  0  0  0
    5.2338    0.3749    1.7282 C   0  0  0  0  0  0  0  0  0  0  0  0
    4.1609   -0.7239    1.8753 C   0  0  0  0  0  0  0  0  0  0  0  0
    3.6598   -2.1796   -2.7654 H   0  0  0  0  0  0  0  0  0  0  0  0
    2.0189   -2.5790   -3.3430 H   0  0  0  0  0  0  0  0  0  0  0  0
    3.8902   -4.3474   -1.6672 H   0  0  0  0  0  0  0  0  0  0  0  0
    3.2922   -4.6809   -3.2959 H   0  0  0  0  0  0  0  0  0  0  0  0
    2.4479   -6.8952   -2.4045 H   0  0  0  0  0  0  0  0  0  0  0  0
    0.5017   -8.0871   -1.4214 H   0  0  0  0  0  0  0  0  0  0  0  0
   -1.2516   -6.7942   -0.1891 H   0  0  0  0  0  0  0  0  0  0  0  0
   -1.0313   -4.3312    0.0420 H   0  0  0  0  0  0  0  0  0  0  0  0
    0.7065   -2.4353    0.1580 H   0  0  0  0  0  0  0  0  0  0  0  0
    0.0971   -2.2323   -1.4747 H   0  0  0  0  0  0  0  0  0  0  0  0
    2.0903    0.0157    3.5803 H   0  0  0  0  0  0  0  0  0  0  0  0
    1.2032    0.8753    2.2979 H   0  0  0  0  0  0  0  0  0  0  0  0
    2.3600    2.4961    3.6431 H   0  0  0  0  0  0  0  0  0  0  0  0
    3.1643    2.4830    2.0710 H   0  0  0  0  0  0  0  0  0  0  0  0
    4.1347    0.9194    4.5257 H   0  0  0  0  0  0  0  0  0  0  0  0
    4.6099    2.5947    4.2301 H   0  0  0  0  0  0  0  0  0  0  0  0
    6.2304    0.9794    3.4180 H   0  0  0  0  0  0  0  0  0  0  0  0
    6.1993   -0.1129    1.5177 H   0  0  0  0  0  0  0  0  0  0  0  0
    4.9796    0.9315    0.8101 H   0  0  0  0  0  0  0  0  0  0  0  0
    4.1891   -1.1615    2.8896 H   0  0  0  0  0  0  0  0  0  0  0  0
    4.3810   -1.5330    1.1697 H   0  0  0  0  0  0  0  0  0  0  0  0
  1  2  2  0
  2  3  1  0
  2 15  1  0
  3  4  2  0
  3  5  1  0
  5  6  1  0
  5 14  1  0
  6  7  1  0
  6 22  1  0
  6 23  1  0
  7  8  1  0
  7 24  1  0
  7 25  1  0
  8  9  2  0
  8 13  1  0
  9 10  1  0
  9 26  1  0
 10 11  2  0
 10 27  1  0
 11 12  1  0
 11 28  1  0
 12 13  2  0
 12 29  1  0
 13 14  1  0
 14 30  1  0
 14 31  1  0
 15 16  1  0
 15 21  1  0
 16 17  1  0
 16 32  1  0
 16 33  1  0
 17 18  1  0
 17 34  1  0
 17 35  1  0
 18 19  1  0
 18 36  1  0
 18 37  1  0
 19 20  1  0
 19 38  1  0
 20 21  1  0
 20 39  1  0
 20 40  1  0
 21 41  1  0
 21 42  1  0
M  END

