
     RDKit          3D

 38 39  0  0  0  0  0  0  0  0999 V2000
    1.3066   -0.1053    0.3482 C   0  0  0  0  0  0  0  0  0  0  0  0
    2.7582   -0.0394    0.2038 N   0  0  0  0  0  0  0  0  0  0  0  0
    3.5518    0.4443    1.3182 C   0  0  0  0  0  0  0  0  0  0  0  0
    3.5706    1.9424    1.4295 C   0  0  0  0  0  0  0  0  0  0  0  0
    3.1543    2.9573    0.6121 C   0  0  0  0  0  0  0  0  0  0  0  0
    3.4778    4.1794    1.2959 C   0  0  0  0  0  0  0  0  0  0  0  0
    4.0628    3.8111    2.4712 C   0  0  0  0  0  0  0  0  0  0  0  0
    4.1214    2.4545    2.5620 O   0  0  0  0  0  0  0  0  0  0  0  0
    3.2712   -0.3819   -1.0246 C   0  0  0  0  0  0  0  0  0  0  0  0
    2.5318   -0.7452   -1.9287 O   0  0  0  0  0  0  0  0  0  0  0  0
    4.7808   -0.2955   -1.2231 C   0  0  0  0  0  0  0  0  0  0  0  0
    5.1687   -0.6330   -2.6546 C   0  0  0  0  0  0  0  0  0  0  0  0
    6.5781   -0.5323   -2.7385 O   0  0  0  0  0  0  0  0  0  0  0  0
    7.2046   -0.7923   -3.9177 C   0  0  0  0  0  0  0  0  0  0  0  0
    8.6048   -0.6631   -3.9132 C   0  0  0  0  0  0  0  0  0  0  0  0
    9.3087   -0.9125   -5.0885 C   0  0  0  0  0  0  0  0  0  0  0  0
    8.6544   -1.2860   -6.2652 C   0  0  0  0  0  0  0  0  0  0  0  0
    7.2539   -1.4180   -6.2742 C   0  0  0  0  0  0  0  0  0  0  0  0
    6.5859   -1.8386   -7.4174 N   0  0  0  0  0  0  0  0  0  0  0  0
    6.5321   -1.1657   -5.0877 C   0  0  0  0  0  0  0  0  0  0  0  0
    1.0305    0.2071    1.3636 H   0  0  0  0  0  0  0  0  0  0  0  0
    0.9426   -1.1292    0.1689 H   0  0  0  0  0  0  0  0  0  0  0  0
    0.8009    0.5510   -0.3773 H   0  0  0  0  0  0  0  0  0  0  0  0
    4.5817    0.0648    1.2386 H   0  0  0  0  0  0  0  0  0  0  0  0
    3.1575    0.0197    2.2584 H   0  0  0  0  0  0  0  0  0  0  0  0
    2.6734    2.8484   -0.3573 H   0  0  0  0  0  0  0  0  0  0  0  0
    3.2950    5.1955    0.9525 H   0  0  0  0  0  0  0  0  0  0  0  0
    4.4707    4.3652    3.3123 H   0  0  0  0  0  0  0  0  0  0  0  0
    5.2979   -0.9895   -0.5384 H   0  0  0  0  0  0  0  0  0  0  0  0
    5.1475    0.7134   -0.9718 H   0  0  0  0  0  0  0  0  0  0  0  0
    4.6794    0.0625   -3.3589 H   0  0  0  0  0  0  0  0  0  0  0  0
    4.8258   -1.6492   -2.9143 H   0  0  0  0  0  0  0  0  0  0  0  0
    9.1045   -0.3693   -2.9889 H   0  0  0  0  0  0  0  0  0  0  0  0
   10.3976   -0.8121   -5.0925 H   0  0  0  0  0  0  0  0  0  0  0  0
    9.2242   -1.4815   -7.1774 H   0  0  0  0  0  0  0  0  0  0  0  0
    7.0737   -1.7034   -8.2952 H   0  0  0  0  0  0  0  0  0  0  0  0
    5.6005   -1.6090   -7.4748 H   0  0  0  0  0  0  0  0  0  0  0  0
    5.4470   -1.2746   -5.0995 H   0  0  0  0  0  0  0  0  0  0  0  0
  1  2  1  0
  1 21  1  0
  1 22  1  0
  1 23  1  0
  2  3  1  0
  2  9  1  0
  3  4  1  0
  3 24  1  0
  3 25  1  0
  4  5  2  0
  4  8  1  0
  5  6  1  0
  5 26  1  0
  6  7  2  0
  6 27  1  0
  7  8  1  0
  7 28  1  0
  9 10  2  0
  9 11  1  0
 11 12  1  0
 11 29  1  0
 11 30  1  0
 12 13  1  0
 12 31  1  0
 12 32  1  0
 13 14  1  0
 14 15  2  0
 14 20  1  0
 15 16  1  0
 15 33  1  0
 16 17  2  0
 16 34  1  0
 17 18  1  0
 17 35  1  0
 18 19  1  0
 18 20  2  0
 19 36  1  0
 19 37  1  0
 20 38  1  0
M  END

