
     RDKit          3D

 52 54  0  0  0  0  0  0  0  0999 V2000
   15.0881    2.5058   -9.4311 C   0  0  0  0  0  0  0  0  0  0  0  0
   14.5787    2.1679   -8.3864 C   0  0  0  0  0  0  0  0  0  0  0  0
   13.9739    1.7266   -7.1325 C   0  0  0  0  0  0  0  0  0  0  0  0
   13.1442    2.7662   -6.5995 O   0  0  0  0  0  0  0  0  0  0  0  0
   12.4001    2.4153   -5.5084 C   0  0  0  0  0  0  0  0  0  0  0  0
   12.7274    2.8756   -4.2245 C   0  0  0  0  0  0  0  0  0  0  0  0
   14.2797    3.9605   -3.9963 Br  0  0  0  0  0  0  0  0  0  0  0  0
   11.9396    2.5546   -3.1173 C   0  0  0  0  0  0  0  0  0  0  0  0
   10.8084    1.7416   -3.2657 C   0  0  0  0  0  0  0  0  0  0  0  0
    9.9537    1.3622   -2.0448 C   0  0  2  0  0  0  0  0  0  0  0  0
    9.0380    0.9002   -2.4404 H   0  0  0  0  0  0  0  0  0  0  0  0
    9.5849    2.5578   -1.1860 C   0  0  0  0  0  0  0  0  0  0  0  0
    8.6026    3.5331   -1.6363 C   0  0  0  0  0  0  0  0  0  0  0  0
    8.2861    4.5653   -1.0503 O   0  0  0  0  0  0  0  0  0  0  0  0
    8.0300    3.1870   -2.8090 O   0  0  0  0  0  0  0  0  0  0  0  0
    7.0626    4.0899   -3.3345 C   0  0  0  0  0  0  0  0  0  0  0  0
   10.1979    2.7714    0.0274 C   0  0  0  0  0  0  0  0  0  0  0  0
   10.0545    3.8507    0.8182 N   0  0  0  0  0  0  0  0  0  0  0  0
   11.0596    1.8625    0.5751 O   0  0  0  0  0  0  0  0  0  0  0  0
   11.1816    0.6210    0.0132 C   0  0  0  0  0  0  0  0  0  0  0  0
   10.6614    0.3207   -1.1985 C   0  0  0  0  0  0  0  0  0  0  0  0
   10.7787   -1.0604   -1.7275 C   0  0  0  0  0  0  0  0  0  0  0  0
   10.2111   -1.3950   -2.7520 O   0  0  0  0  0  0  0  0  0  0  0  0
   11.6634   -2.0286   -0.9514 C   0  0  0  0  0  0  0  0  0  0  0  0
   11.6266   -1.7813    0.5583 C   0  0  0  0  0  0  0  0  0  0  0  0
   11.9524   -0.3218    0.8887 C   0  0  0  0  0  0  0  0  0  0  0  0
   10.4768    1.2713   -4.5418 C   0  0  0  0  0  0  0  0  0  0  0  0
   11.2520    1.6063   -5.6539 C   0  0  0  0  0  0  0  0  0  0  0  0
   10.9237    1.1075   -6.8849 O   0  0  0  0  0  0  0  0  0  0  0  0
   10.3588    2.0366   -7.8212 C   0  0  0  0  0  0  0  0  0  0  0  0
   10.0900    1.2998   -9.1174 C   0  0  0  0  0  0  0  0  0  0  0  0
   15.5410    2.8118  -10.3554 H   0  0  0  0  0  0  0  0  0  0  0  0
   14.7669    1.4766   -6.4031 H   0  0  0  0  0  0  0  0  0  0  0  0
   13.3722    0.8181   -7.3096 H   0  0  0  0  0  0  0  0  0  0  0  0
   12.2171    2.9463   -2.1374 H   0  0  0  0  0  0  0  0  0  0  0  0
    6.7335    3.6619   -4.2897 H   0  0  0  0  0  0  0  0  0  0  0  0
    7.5001    5.0872   -3.4944 H   0  0  0  0  0  0  0  0  0  0  0  0
    6.2065    4.1947   -2.6501 H   0  0  0  0  0  0  0  0  0  0  0  0
    9.3615    4.5325    0.5016 H   0  0  0  0  0  0  0  0  0  0  0  0
   10.3831    3.8076    1.7734 H   0  0  0  0  0  0  0  0  0  0  0  0
   12.6939   -1.8937   -1.3324 H   0  0  0  0  0  0  0  0  0  0  0  0
   11.3579   -3.0510   -1.2171 H   0  0  0  0  0  0  0  0  0  0  0  0
   12.3291   -2.4511    1.0782 H   0  0  0  0  0  0  0  0  0  0  0  0
   10.6191   -2.0194    0.9406 H   0  0  0  0  0  0  0  0  0  0  0  0
   13.0325   -0.1230    0.7503 H   0  0  0  0  0  0  0  0  0  0  0  0
   11.7323   -0.0868    1.9422 H   0  0  0  0  0  0  0  0  0  0  0  0
    9.6131    0.6217   -4.6889 H   0  0  0  0  0  0  0  0  0  0  0  0
   11.0555    2.8772   -7.9794 H   0  0  0  0  0  0  0  0  0  0  0  0
    9.4219    2.4454   -7.3982 H   0  0  0  0  0  0  0  0  0  0  0  0
   11.0266    0.9184   -9.5526 H   0  0  0  0  0  0  0  0  0  0  0  0
    9.6216    1.9774   -9.8484 H   0  0  0  0  0  0  0  0  0  0  0  0
    9.4147    0.4467   -8.9487 H   0  0  0  0  0  0  0  0  0  0  0  0
  1  2  3  0
  1 32  1  0
  2  3  1  0
  3  4  1  0
  3 33  1  0
  3 34  1  0
  4  5  1  0
  5  6  2  0
  5 28  1  0
  6  7  1  0
  6  8  1  0
  8  9  2  0
  8 35  1  0
  9 10  1  0
  9 27  1  0
 10 11  1  6
 10 12  1  0
 10 21  1  0
 12 13  1  0
 12 17  2  0
 13 14  2  0
 13 15  1  0
 15 16  1  0
 16 36  1  0
 16 37  1  0
 16 38  1  0
 17 18  1  0
 17 19  1  0
 18 39  1  0
 18 40  1  0
 19 20  1  0
 20 21  2  0
 20 26  1  0
 21 22  1  0
 22 23  2  0
 22 24  1  0
 24 25  1  0
 24 41  1  0
 24 42  1  0
 25 26  1  0
 25 43  1  0
 25 44  1  0
 26 45  1  0
 26 46  1  0
 27 28  2  0
 27 47  1  0
 28 29  1  0
 29 30  1  0
 30 31  1  0
 30 48  1  0
 30 49  1  0
 31 50  1  0
 31 51  1  0
 31 52  1  0
M  END

