
     RDKit          3D

 34 34  0  0  0  0  0  0  0  0999 V2000
    0.9128    0.2061    0.1127 C   0  0  0  0  0  0  0  0  0  0  0  0
    2.4217    0.1301    0.0689 C   0  0  0  0  0  0  0  0  0  0  0  0
    3.1644    1.3097   -0.0027 C   0  0  0  0  0  0  0  0  0  0  0  0
    4.5615    1.3155   -0.0540 C   0  0  0  0  0  0  0  0  0  0  0  0
    5.2807    2.6438   -0.1475 C   0  0  0  0  0  0  0  0  0  0  0  0
    5.2504    0.0834   -0.0099 C   0  0  0  0  0  0  0  0  0  0  0  0
    6.7663    0.0728   -0.0917 C   0  0  0  0  0  0  0  0  0  0  0  0
    4.5197   -1.1320    0.1015 C   0  0  0  0  0  0  0  0  0  0  0  0
    5.3152   -2.4481    0.2543 C   0  0  1  0  0  0  0  0  0  0  0  0
    4.9684   -3.2893    1.4040 N   0  0  0  0  0  0  0  0  0  0  0  0
    5.3649   -3.3101   -1.0239 C   0  0  0  0  0  0  0  0  0  0  0  0
    5.8909   -2.5509   -2.1535 N   0  0  0  0  0  0  0  0  0  0  0  0
    3.1019   -1.1084    0.1062 C   0  0  0  0  0  0  0  0  0  0  0  0
    2.2520   -2.3635    0.1706 C   0  0  0  0  0  0  0  0  0  0  0  0
    0.5736    1.2519    0.1364 H   0  0  0  0  0  0  0  0  0  0  0  0
    0.4969   -0.2995    1.0006 H   0  0  0  0  0  0  0  0  0  0  0  0
    0.4466   -0.2721   -0.7663 H   0  0  0  0  0  0  0  0  0  0  0  0
    2.6322    2.2657   -0.0256 H   0  0  0  0  0  0  0  0  0  0  0  0
    4.5623    3.4764   -0.1270 H   0  0  0  0  0  0  0  0  0  0  0  0
    5.8647    2.7363   -1.0788 H   0  0  0  0  0  0  0  0  0  0  0  0
    5.9859    2.7949    0.6866 H   0  0  0  0  0  0  0  0  0  0  0  0
    7.1674    1.0654   -0.3284 H   0  0  0  0  0  0  0  0  0  0  0  0
    7.1115   -0.6237   -0.8702 H   0  0  0  0  0  0  0  0  0  0  0  0
    7.2310   -0.2400    0.8599 H   0  0  0  0  0  0  0  0  0  0  0  0
    6.3591   -2.1626    0.4248 H   0  0  0  0  0  0  0  0  0  0  0  0
    3.9937   -3.5788    1.3837 H   0  0  0  0  0  0  0  0  0  0  0  0
    5.0871   -2.7602    2.2677 H   0  0  0  0  0  0  0  0  0  0  0  0
    4.3714   -3.7685   -1.2170 H   0  0  0  0  0  0  0  0  0  0  0  0
    6.0477   -4.1477   -0.8089 H   0  0  0  0  0  0  0  0  0  0  0  0
    5.2214   -1.8362   -2.4430 H   0  0  0  0  0  0  0  0  0  0  0  0
    6.0308   -3.1594   -2.9591 H   0  0  0  0  0  0  0  0  0  0  0  0
    2.7821   -3.2688   -0.1426 H   0  0  0  0  0  0  0  0  0  0  0  0
    1.3739   -2.2760   -0.4869 H   0  0  0  0  0  0  0  0  0  0  0  0
    1.8565   -2.5379    1.1879 H   0  0  0  0  0  0  0  0  0  0  0  0
  1  2  1  0
  1 15  1  0
  1 16  1  0
  1 17  1  0
  2  3  2  0
  2 13  1  0
  3  4  1  0
  3 18  1  0
  4  5  1  0
  4  6  2  0
  5 19  1  0
  5 20  1  0
  5 21  1  0
  6  7  1  0
  6  8  1  0
  7 22  1  0
  7 23  1  0
  7 24  1  0
  8  9  1  0
  8 13  2  0
  9 10  1  0
  9 11  1  0
  9 25  1  1
 10 26  1  0
 10 27  1  0
 11 12  1  0
 11 28  1  0
 11 29  1  0
 12 30  1  0
 12 31  1  0
 13 14  1  0
 14 32  1  0
 14 33  1  0
 14 34  1  0
M  END

