
     RDKit          3D

 50 52  0  0  0  0  0  0  0  0999 V2000
    6.0092   -1.7498    0.7373 C   0  0  0  0  0  0  0  0  0  0  0  0
    4.8040   -0.8970    0.5044 C   0  0  0  0  0  0  0  0  0  0  0  0
    4.8706    0.4223    0.6148 N   0  0  0  0  0  0  0  0  0  0  0  0
    3.6286    0.8941    0.3562 N   0  0  0  0  0  0  0  0  0  0  0  0
    3.3962    2.3317    0.3966 C   0  0  0  0  0  0  0  0  0  0  0  0
    4.1083    3.1001   -0.7302 C   0  0  1  0  0  0  0  0  0  0  0  0
    3.6306    2.6643   -2.1192 C   0  0  0  0  0  0  0  0  0  0  0  0
    3.9276    4.6068   -0.5136 C   0  0  0  0  0  0  0  0  0  0  0  0
    2.7645   -0.1114    0.0786 C   0  0  0  0  0  0  0  0  0  0  0  0
    1.1143    0.1933   -0.2891 Cl  0  0  0  0  0  0  0  0  0  0  0  0
    3.4778   -1.3116    0.1601 C   0  0  0  0  0  0  0  0  0  0  0  0
    3.0458   -2.6993   -0.0275 C   0  0  0  0  0  0  0  0  0  0  0  0
    3.7701   -3.6632    0.0888 O   0  0  0  0  0  0  0  0  0  0  0  0
    1.7415   -2.7999   -0.3846 O   0  0  0  0  0  0  0  0  0  0  0  0
    1.2194   -4.1077   -0.4846 C   0  0  0  0  0  0  0  0  0  0  0  0
    0.8557   -4.6748    0.8950 C   0  0  0  0  0  0  0  0  0  0  0  0
    1.0621   -4.0212    1.8959 O   0  0  0  0  0  0  0  0  0  0  0  0
    0.2431   -6.0355    0.9458 C   0  0  0  0  0  0  0  0  0  0  0  0
   -0.1195   -6.5423    2.2073 C   0  0  0  0  0  0  0  0  0  0  0  0
   -0.6986   -7.8029    2.3527 C   0  0  0  0  0  0  0  0  0  0  0  0
   -0.9107   -8.5594    1.1983 C   0  0  0  0  0  0  0  0  0  0  0  0
   -0.5599   -8.0763   -0.0807 C   0  0  0  0  0  0  0  0  0  0  0  0
    0.0154   -6.8221   -0.2070 C   0  0  0  0  0  0  0  0  0  0  0  0
   -0.9235   -9.1241   -1.1093 C   0  0  1  0  0  0  0  0  0  0  0  0
   -1.7718   -8.7726   -1.7267 H   0  0  0  0  0  0  0  0  0  0  0  0
    0.1961   -9.5999   -2.0423 C   0  0  0  0  0  0  0  0  0  0  0  0
   -1.4791  -10.2753   -0.2440 C   0  0  0  0  0  0  0  0  0  0  0  0
   -1.8580  -11.3605   -0.6139 O   0  0  0  0  0  0  0  0  0  0  0  0
   -1.4572   -9.8319    1.0738 N   0  0  0  0  0  0  0  0  0  0  0  0
    6.8666   -1.1088    0.9850 H   0  0  0  0  0  0  0  0  0  0  0  0
    6.2465   -2.3534   -0.1520 H   0  0  0  0  0  0  0  0  0  0  0  0
    5.8349   -2.4639    1.5563 H   0  0  0  0  0  0  0  0  0  0  0  0
    3.7514    2.6883    1.3760 H   0  0  0  0  0  0  0  0  0  0  0  0
    2.3093    2.4907    0.3505 H   0  0  0  0  0  0  0  0  0  0  0  0
    5.1820    2.8604   -0.6407 H   0  0  0  0  0  0  0  0  0  0  0  0
    2.5542    2.8662   -2.2540 H   0  0  0  0  0  0  0  0  0  0  0  0
    3.7951    1.5886   -2.2877 H   0  0  0  0  0  0  0  0  0  0  0  0
    4.1747    3.2089   -2.9071 H   0  0  0  0  0  0  0  0  0  0  0  0
    2.8639    4.8951   -0.5754 H   0  0  0  0  0  0  0  0  0  0  0  0
    4.4705    5.1812   -1.2804 H   0  0  0  0  0  0  0  0  0  0  0  0
    4.3049    4.9252    0.4718 H   0  0  0  0  0  0  0  0  0  0  0  0
    1.9397   -4.7798   -0.9780 H   0  0  0  0  0  0  0  0  0  0  0  0
    0.3147   -4.0328   -1.1071 H   0  0  0  0  0  0  0  0  0  0  0  0
    0.0709   -5.9125    3.0786 H   0  0  0  0  0  0  0  0  0  0  0  0
   -0.9724   -8.1845    3.3389 H   0  0  0  0  0  0  0  0  0  0  0  0
    0.2918   -6.4566   -1.1983 H   0  0  0  0  0  0  0  0  0  0  0  0
    0.5212   -8.7904   -2.7136 H   0  0  0  0  0  0  0  0  0  0  0  0
   -0.1645  -10.4386   -2.6560 H   0  0  0  0  0  0  0  0  0  0  0  0
    1.0714   -9.9416   -1.4685 H   0  0  0  0  0  0  0  0  0  0  0  0
   -1.7646  -10.4171    1.8425 H   0  0  0  0  0  0  0  0  0  0  0  0
  1  2  1  0
  1 30  1  0
  1 31  1  0
  1 32  1  0
  2  3  2  0
  2 11  1  0
  3  4  1  0
  4  5  1  0
  4  9  1  0
  5  6  1  0
  5 33  1  0
  5 34  1  0
  6  7  1  0
  6  8  1  0
  6 35  1  6
  7 36  1  0
  7 37  1  0
  7 38  1  0
  8 39  1  0
  8 40  1  0
  8 41  1  0
  9 10  1  0
  9 11  2  0
 11 12  1  0
 12 13  2  0
 12 14  1  0
 14 15  1  0
 15 16  1  0
 15 42  1  0
 15 43  1  0
 16 17  2  0
 16 18  1  0
 18 19  2  0
 18 23  1  0
 19 20  1  0
 19 44  1  0
 20 21  2  0
 20 45  1  0
 21 22  1  0
 21 29  1  0
 22 23  2  0
 22 24  1  0
 23 46  1  0
 24 25  1  6
 24 26  1  0
 24 27  1  0
 26 47  1  0
 26 48  1  0
 26 49  1  0
 27 28  2  0
 27 29  1  0
 29 50  1  0
M  END

