
     RDKit          3D

 36 37  0  0  0  0  0  0  0  0999 V2000
    1.0159    0.0774   -1.4616 C   0  0  0  0  0  0  0  0  0  0  0  0
    2.7988    0.1781   -1.7925 S   0  0  0  0  0  0  0  0  0  0  0  0
    3.2994    1.6730   -0.9729 C   0  0  0  0  0  0  0  0  0  0  0  0
    2.3856    2.5373   -0.3324 C   0  0  0  0  0  0  0  0  0  0  0  0
    2.8508    3.7020    0.2758 C   0  0  0  0  0  0  0  0  0  0  0  0
    1.9207    4.6602    0.9734 C   0  0  0  0  0  0  0  0  0  0  0  0
    4.1542    4.0309    0.2703 N   0  0  0  0  0  0  0  0  0  0  0  0
    5.0012    3.2182   -0.3326 C   0  0  0  0  0  0  0  0  0  0  0  0
    6.3225    3.5440   -0.3389 O   0  0  0  0  0  0  0  0  0  0  0  0
    6.7231    4.7709    0.2825 C   0  0  0  0  0  0  0  0  0  0  0  0
    8.2137    4.9351    0.1240 C   0  0  0  0  0  0  0  0  0  0  0  0
    8.9999    5.3369    1.2126 C   0  0  0  0  0  0  0  0  0  0  0  0
   10.3763    5.5354    1.0652 C   0  0  0  0  0  0  0  0  0  0  0  0
   10.9854    5.3219   -0.1738 C   0  0  0  0  0  0  0  0  0  0  0  0
   10.2104    4.9125   -1.2645 C   0  0  0  0  0  0  0  0  0  0  0  0
    8.8346    4.7244   -1.1178 C   0  0  0  0  0  0  0  0  0  0  0  0
    4.6637    2.0085   -0.9802 C   0  0  0  0  0  0  0  0  0  0  0  0
    5.7563    1.1786   -1.6309 C   0  0  0  0  0  0  0  0  0  0  0  0
    6.8048    0.8349   -0.7560 O   0  0  0  0  0  0  0  0  0  0  0  0
    0.6917   -0.8601   -1.9350 H   0  0  0  0  0  0  0  0  0  0  0  0
    0.4641    0.9124   -1.9171 H   0  0  0  0  0  0  0  0  0  0  0  0
    0.8026    0.0230   -0.3842 H   0  0  0  0  0  0  0  0  0  0  0  0
    1.3203    2.3153   -0.3041 H   0  0  0  0  0  0  0  0  0  0  0  0
    0.8746    4.3254    0.9328 H   0  0  0  0  0  0  0  0  0  0  0  0
    1.9905    5.6601    0.5149 H   0  0  0  0  0  0  0  0  0  0  0  0
    2.2146    4.7748    2.0294 H   0  0  0  0  0  0  0  0  0  0  0  0
    6.4310    4.7649    1.3441 H   0  0  0  0  0  0  0  0  0  0  0  0
    6.1721    5.6025   -0.1896 H   0  0  0  0  0  0  0  0  0  0  0  0
    8.5305    5.4938    2.1881 H   0  0  0  0  0  0  0  0  0  0  0  0
   10.9750    5.8487    1.9245 H   0  0  0  0  0  0  0  0  0  0  0  0
   12.0621    5.4700   -0.2897 H   0  0  0  0  0  0  0  0  0  0  0  0
   10.6811    4.7400   -2.2359 H   0  0  0  0  0  0  0  0  0  0  0  0
    8.2332    4.4027   -1.9714 H   0  0  0  0  0  0  0  0  0  0  0  0
    6.1316    1.7278   -2.5208 H   0  0  0  0  0  0  0  0  0  0  0  0
    5.3360    0.2330   -2.0035 H   0  0  0  0  0  0  0  0  0  0  0  0
    7.1778    1.6692   -0.4346 H   0  0  0  0  0  0  0  0  0  0  0  0
  1  2  1  0
  1 20  1  0
  1 21  1  0
  1 22  1  0
  2  3  1  0
  3  4  2  0
  3 17  1  0
  4  5  1  0
  4 23  1  0
  5  6  1  0
  5  7  2  0
  6 24  1  0
  6 25  1  0
  6 26  1  0
  7  8  1  0
  8  9  1  0
  8 17  2  0
  9 10  1  0
 10 11  1  0
 10 27  1  0
 10 28  1  0
 11 12  2  0
 11 16  1  0
 12 13  1  0
 12 29  1  0
 13 14  2  0
 13 30  1  0
 14 15  1  0
 14 31  1  0
 15 16  2  0
 15 32  1  0
 16 33  1  0
 17 18  1  0
 18 19  1  0
 18 34  1  0
 18 35  1  0
 19 36  1  0
M  END

