
     RDKit          3D

 42 44  0  0  0  0  0  0  0  0999 V2000
    1.4110   -1.2759   -1.5552 O   0  0  0  0  0  0  0  0  0  0  0  0
    1.9098   -0.3792   -0.8947 C   0  0  0  0  0  0  0  0  0  0  0  0
    1.9379   -0.3679    0.4859 N   0  0  0  0  0  0  0  0  0  0  0  0
    1.3851   -1.2772    1.3884 C   0  0  0  0  0  0  0  0  0  0  0  0
    0.6972   -2.4387    0.9820 C   0  0  0  0  0  0  0  0  0  0  0  0
    0.1579   -3.3064    1.9309 C   0  0  0  0  0  0  0  0  0  0  0  0
    0.2804   -3.0522    3.3001 C   0  0  0  0  0  0  0  0  0  0  0  0
    0.9553   -1.9049    3.7159 C   0  0  0  0  0  0  0  0  0  0  0  0
    1.5143   -1.0223    2.7817 C   0  0  0  0  0  0  0  0  0  0  0  0
    2.2986    0.4775    3.3817 S   0  0  0  0  0  0  0  0  0  0  0  0
    4.0468   -0.0880    3.4372 C   0  0  1  0  0  0  0  0  0  0  0  0
    4.5695   -0.2170    2.1929 F   0  0  0  0  0  0  0  0  0  0  0  0
    4.7544    0.8515    4.0917 F   0  0  0  0  0  0  0  0  0  0  0  0
    2.5608    0.8093   -1.5509 C   0  0  0  0  0  0  0  0  0  0  0  0
    2.8532    2.0167   -0.8974 C   0  0  0  0  0  0  0  0  0  0  0  0
    3.4497    3.0742   -1.5856 C   0  0  0  0  0  0  0  0  0  0  0  0
    3.7748    2.9633   -2.9477 C   0  0  0  0  0  0  0  0  0  0  0  0
    4.3624    4.1513   -3.7197 C   0  0  1  0  0  0  0  0  0  0  0  0
    5.2636    5.3848   -2.6874 S   0  0  0  0  0  0  0  0  0  0  0  0
    6.7791    4.4258   -2.3030 C   0  0  0  0  0  0  0  0  0  0  0  0
    7.5767    3.9893   -3.5331 C   0  0  0  0  0  0  0  0  0  0  0  0
    6.8307    3.0069   -4.4377 C   0  0  0  0  0  0  0  0  0  0  0  0
    5.3269    3.7006   -5.2251 S   0  0  0  0  0  0  0  0  0  0  0  0
    3.4656    1.7567   -3.6007 C   0  0  0  0  0  0  0  0  0  0  0  0
    2.8640    0.7026   -2.9165 C   0  0  0  0  0  0  0  0  0  0  0  0
    2.4646    0.3790    0.9279 H   0  0  0  0  0  0  0  0  0  0  0  0
    0.6010   -2.6367   -0.0826 H   0  0  0  0  0  0  0  0  0  0  0  0
   -0.3706   -4.1994    1.5872 H   0  0  0  0  0  0  0  0  0  0  0  0
   -0.1495   -3.7346    4.0365 H   0  0  0  0  0  0  0  0  0  0  0  0
    1.0536   -1.6728    4.7787 H   0  0  0  0  0  0  0  0  0  0  0  0
    4.1320   -1.0596    3.9517 H   0  0  0  0  0  0  0  0  0  0  0  0
    2.6005    2.1663    0.1555 H   0  0  0  0  0  0  0  0  0  0  0  0
    3.6674    4.0062   -1.0612 H   0  0  0  0  0  0  0  0  0  0  0  0
    3.5298    4.7439   -4.1342 H   0  0  0  0  0  0  0  0  0  0  0  0
    6.5077    3.5574   -1.6796 H   0  0  0  0  0  0  0  0  0  0  0  0
    7.3747    5.1054   -1.6746 H   0  0  0  0  0  0  0  0  0  0  0  0
    8.5047    3.4995   -3.1847 H   0  0  0  0  0  0  0  0  0  0  0  0
    7.8744    4.8764   -4.1157 H   0  0  0  0  0  0  0  0  0  0  0  0
    6.5593    2.0903   -3.8876 H   0  0  0  0  0  0  0  0  0  0  0  0
    7.4626    2.7033   -5.2863 H   0  0  0  0  0  0  0  0  0  0  0  0
    3.7058    1.6497   -4.6598 H   0  0  0  0  0  0  0  0  0  0  0  0
    2.6173   -0.2287   -3.4295 H   0  0  0  0  0  0  0  0  0  0  0  0
  1  2  2  0
  2  3  1  0
  2 14  1  0
  3  4  1  0
  3 26  1  0
  4  5  2  0
  4  9  1  0
  5  6  1  0
  5 27  1  0
  6  7  2  0
  6 28  1  0
  7  8  1  0
  7 29  1  0
  8  9  2  0
  8 30  1  0
  9 10  1  0
 10 11  1  0
 11 12  1  0
 11 13  1  0
 11 31  1  1
 14 15  2  0
 14 25  1  0
 15 16  1  0
 15 32  1  0
 16 17  2  0
 16 33  1  0
 17 18  1  0
 17 24  1  0
 18 19  1  0
 18 23  1  0
 18 34  1  6
 19 20  1  0
 20 21  1  0
 20 35  1  0
 20 36  1  0
 21 22  1  0
 21 37  1  0
 21 38  1  0
 22 23  1  0
 22 39  1  0
 22 40  1  0
 24 25  2  0
 24 41  1  0
 25 42  1  0
M  END

