
     RDKit          3D

 37 38  0  0  0  0  0  0  0  0999 V2000
    6.1577    0.5655   -1.9149 C   0  0  0  0  0  0  0  0  0  0  0  0
    5.0324    0.1804   -0.9520 C   0  0  1  0  0  0  0  0  0  0  0  0
    4.8729   -1.3401   -0.7506 C   0  0  0  0  0  0  0  0  0  0  0  0
    6.0669   -2.0662   -0.1312 C   0  0  0  0  0  0  0  0  0  0  0  0
    5.8318   -3.4492    0.0287 O   0  0  0  0  0  0  0  0  0  0  0  0
    5.2059    0.8916    0.3173 N   0  0  0  0  0  0  0  0  0  0  0  0
    4.1543    1.2560    1.1040 C   0  0  0  0  0  0  0  0  0  0  0  0
    2.9949    0.9898    0.8231 O   0  0  0  0  0  0  0  0  0  0  0  0
    4.5094    2.0493    2.3614 C   0  0  1  0  0  0  0  0  0  0  0  0
    3.9627    3.4887    2.3330 C   0  0  0  0  0  0  0  0  0  0  0  0
    3.6537    3.8190    3.7938 C   0  0  0  0  0  0  0  0  0  0  0  0
    3.4149    4.9160    4.2505 O   0  0  0  0  0  0  0  0  0  0  0  0
    3.6702    2.6263    4.4911 N   0  0  0  0  0  0  0  0  0  0  0  0
    3.2099    2.4863    5.8380 C   0  0  1  0  0  0  0  0  0  0  0  0
    4.1456    1.9037    6.8754 C   0  0  0  0  0  0  0  0  0  0  0  0
    3.7891    3.3659    6.9080 C   0  0  0  0  0  0  0  0  0  0  0  0
    3.8489    1.4647    3.6295 C   0  0  0  0  0  0  0  0  0  0  0  0
    6.0373    0.0438   -2.8764 H   0  0  0  0  0  0  0  0  0  0  0  0
    7.1521    0.2997   -1.5181 H   0  0  0  0  0  0  0  0  0  0  0  0
    6.1502    1.6489   -2.1112 H   0  0  0  0  0  0  0  0  0  0  0  0
    4.0755    0.5399   -1.3616 H   0  0  0  0  0  0  0  0  0  0  0  0
    4.6428   -1.8078   -1.7232 H   0  0  0  0  0  0  0  0  0  0  0  0
    3.9863   -1.4959   -0.1110 H   0  0  0  0  0  0  0  0  0  0  0  0
    6.3386   -1.5850    0.8318 H   0  0  0  0  0  0  0  0  0  0  0  0
    6.9516   -1.9881   -0.7840 H   0  0  0  0  0  0  0  0  0  0  0  0
    5.0488   -3.5574    0.5849 H   0  0  0  0  0  0  0  0  0  0  0  0
    6.1434    1.1347    0.6143 H   0  0  0  0  0  0  0  0  0  0  0  0
    5.6018    2.0783    2.5082 H   0  0  0  0  0  0  0  0  0  0  0  0
    3.0113    3.5282    1.7754 H   0  0  0  0  0  0  0  0  0  0  0  0
    4.6438    4.2321    1.8961 H   0  0  0  0  0  0  0  0  0  0  0  0
    2.1466    2.2233    5.9321 H   0  0  0  0  0  0  0  0  0  0  0  0
    5.1532    1.6355    6.5449 H   0  0  0  0  0  0  0  0  0  0  0  0
    3.7208    1.2345    7.6287 H   0  0  0  0  0  0  0  0  0  0  0  0
    4.5418    4.0932    6.5994 H   0  0  0  0  0  0  0  0  0  0  0  0
    3.1070    3.7267    7.6820 H   0  0  0  0  0  0  0  0  0  0  0  0
    2.8810    0.9984    3.3684 H   0  0  0  0  0  0  0  0  0  0  0  0
    4.4764    0.7039    4.1213 H   0  0  0  0  0  0  0  0  0  0  0  0
  1  2  1  0
  1 18  1  0
  1 19  1  0
  1 20  1  0
  2  3  1  0
  2  6  1  0
  2 21  1  6
  3  4  1  0
  3 22  1  0
  3 23  1  0
  4  5  1  0
  4 24  1  0
  4 25  1  0
  5 26  1  0
  6  7  1  0
  6 27  1  0
  7  8  2  0
  7  9  1  0
  9 10  1  0
  9 17  1  0
  9 28  1  1
 10 11  1  0
 10 29  1  0
 10 30  1  0
 11 12  2  0
 11 13  1  0
 13 14  1  0
 13 17  1  0
 14 15  1  0
 14 16  1  0
 14 31  1  6
 15 16  1  0
 15 32  1  0
 15 33  1  0
 16 34  1  0
 16 35  1  0
 17 36  1  0
 17 37  1  0
M  END

