
     RDKit          3D

 36 39  0  0  0  0  0  0  0  0999 V2000
    1.1549    0.2030    0.1682 C   0  0  0  0  0  0  0  0  0  0  0  0
    2.6332   -0.1587    0.0035 C   0  0  1  0  0  0  0  0  0  0  0  0
    3.5816    0.9169    0.5856 C   0  0  0  0  0  0  0  0  0  0  0  0
    3.9887    0.3423    1.9200 C   0  0  0  0  0  0  0  0  0  0  0  0
    4.6383    0.9487    2.9894 C   0  0  0  0  0  0  0  0  0  0  0  0
    4.9580    0.1858    4.1217 C   0  0  0  0  0  0  0  0  0  0  0  0
    4.6259   -1.1715    4.1598 C   0  0  0  0  0  0  0  0  0  0  0  0
    3.9700   -1.7976    3.0917 C   0  0  0  0  0  0  0  0  0  0  0  0
    3.6489   -1.0243    1.9683 C   0  0  0  0  0  0  0  0  0  0  0  0
    2.9798   -1.3815    0.7766 N   0  0  0  0  0  0  0  0  0  0  0  0
    2.6602   -2.6358    0.3174 C   0  0  0  0  0  0  0  0  0  0  0  0
    2.9770   -3.6996    1.0814 N   0  0  0  0  0  0  0  0  0  0  0  0
    2.6671   -4.8934    0.5859 C   0  0  0  0  0  0  0  0  0  0  0  0
    2.0461   -5.0740   -0.6478 C   0  0  0  0  0  0  0  0  0  0  0  0
    1.7475   -3.9037   -1.3723 C   0  0  0  0  0  0  0  0  0  0  0  0
    1.0905   -3.9334   -2.6855 C   0  0  0  0  0  0  0  0  0  0  0  0
    0.7601   -2.8505   -3.4767 C   0  0  0  0  0  0  0  0  0  0  0  0
    0.1301   -3.2185   -4.6971 C   0  0  0  0  0  0  0  0  0  0  0  0
   -0.0150   -4.5796   -4.8263 C   0  0  0  0  0  0  0  0  0  0  0  0
    0.6168   -5.4253   -3.4619 S   0  0  0  0  0  0  0  0  0  0  0  0
    2.0550   -2.6973   -0.8824 N   0  0  0  0  0  0  0  0  0  0  0  0
    0.9196    1.1064   -0.4176 H   0  0  0  0  0  0  0  0  0  0  0  0
    0.9171    0.4076    1.2248 H   0  0  0  0  0  0  0  0  0  0  0  0
    0.5118   -0.6142   -0.1875 H   0  0  0  0  0  0  0  0  0  0  0  0
    2.8394   -0.3561   -1.0564 H   0  0  0  0  0  0  0  0  0  0  0  0
    3.0828    1.8948    0.6685 H   0  0  0  0  0  0  0  0  0  0  0  0
    4.4673    1.0584   -0.0591 H   0  0  0  0  0  0  0  0  0  0  0  0
    4.8993    2.0098    2.9443 H   0  0  0  0  0  0  0  0  0  0  0  0
    5.4663    0.6509    4.9699 H   0  0  0  0  0  0  0  0  0  0  0  0
    4.8786   -1.7649    5.0427 H   0  0  0  0  0  0  0  0  0  0  0  0
    3.7162   -2.8534    3.1185 H   0  0  0  0  0  0  0  0  0  0  0  0
    2.9260   -5.7602    1.2063 H   0  0  0  0  0  0  0  0  0  0  0  0
    1.8039   -6.0699   -1.0200 H   0  0  0  0  0  0  0  0  0  0  0  0
    0.9758   -1.8286   -3.1672 H   0  0  0  0  0  0  0  0  0  0  0  0
   -0.2044   -2.5057   -5.4523 H   0  0  0  0  0  0  0  0  0  0  0  0
   -0.4594   -5.1343   -5.6519 H   0  0  0  0  0  0  0  0  0  0  0  0
  1  2  1  0
  1 22  1  0
  1 23  1  0
  1 24  1  0
  2  3  1  0
  2 10  1  0
  2 25  1  6
  3  4  1  0
  3 26  1  0
  3 27  1  0
  4  5  2  0
  4  9  1  0
  5  6  1  0
  5 28  1  0
  6  7  2  0
  6 29  1  0
  7  8  1  0
  7 30  1  0
  8  9  2  0
  8 31  1  0
  9 10  1  0
 10 11  1  0
 11 12  2  0
 11 21  1  0
 12 13  1  0
 13 14  2  0
 13 32  1  0
 14 15  1  0
 14 33  1  0
 15 16  1  0
 15 21  2  0
 16 17  2  0
 16 20  1  0
 17 18  1  0
 17 34  1  0
 18 19  2  0
 18 35  1  0
 19 20  1  0
 19 36  1  0
M  END

