
     RDKit          3D

 32 33  0  0  0  0  0  0  0  0999 V2000
    0.5423   -0.2394   -0.1889 C   0  0  0  0  0  0  0  0  0  0  0  0
    2.0733   -0.2286   -0.0956 C   0  0  1  0  0  0  0  0  0  0  0  0
    2.7140   -1.5654   -0.5232 C   0  0  0  0  0  0  0  0  0  0  0  0
    2.6530   -1.7765   -2.0416 C   0  0  0  0  0  0  0  0  0  0  0  0
    3.2553   -0.5815   -2.7850 C   0  0  0  0  0  0  0  0  0  0  0  0
    2.6409    0.6721   -2.3483 N   0  0  0  0  0  0  0  0  0  0  0  0
    2.1361    1.5285   -3.2906 C   0  0  0  0  0  0  0  0  0  0  0  0
    2.1493    1.2940   -4.4884 O   0  0  0  0  0  0  0  0  0  0  0  0
    1.5568    2.8453   -2.8096 C   0  0  0  0  0  0  0  0  0  0  0  0
    2.3457    3.9959   -2.7163 C   0  0  0  0  0  0  0  0  0  0  0  0
    1.7489    5.2213   -2.4030 C   0  0  0  0  0  0  0  0  0  0  0  0
    0.4384    5.3528   -2.1894 N   0  0  0  0  0  0  0  0  0  0  0  0
   -0.3231    4.2658   -2.2831 C   0  0  0  0  0  0  0  0  0  0  0  0
    0.1767    2.9911   -2.5924 C   0  0  0  0  0  0  0  0  0  0  0  0
   -0.6149    1.8930   -2.6762 O   0  0  0  0  0  0  0  0  0  0  0  0
    2.6977    0.9231   -0.9116 C   0  0  0  0  0  0  0  0  0  0  0  0
    0.1210   -1.0907    0.3700 H   0  0  0  0  0  0  0  0  0  0  0  0
    0.1902   -0.3030   -1.2292 H   0  0  0  0  0  0  0  0  0  0  0  0
    0.1176    0.6838    0.2374 H   0  0  0  0  0  0  0  0  0  0  0  0
    2.3458   -0.0459    0.9592 H   0  0  0  0  0  0  0  0  0  0  0  0
    2.2298   -2.4032    0.0058 H   0  0  0  0  0  0  0  0  0  0  0  0
    3.7731   -1.5686   -0.2061 H   0  0  0  0  0  0  0  0  0  0  0  0
    1.6096   -1.9174   -2.3695 H   0  0  0  0  0  0  0  0  0  0  0  0
    3.1990   -2.6919   -2.3242 H   0  0  0  0  0  0  0  0  0  0  0  0
    3.1143   -0.6558   -3.8701 H   0  0  0  0  0  0  0  0  0  0  0  0
    4.3445   -0.5309   -2.5873 H   0  0  0  0  0  0  0  0  0  0  0  0
    3.4225    3.9377   -2.8940 H   0  0  0  0  0  0  0  0  0  0  0  0
    2.3573    6.1293   -2.3254 H   0  0  0  0  0  0  0  0  0  0  0  0
   -1.4017    4.3912   -2.1067 H   0  0  0  0  0  0  0  0  0  0  0  0
   -1.5386    2.1426   -2.5357 H   0  0  0  0  0  0  0  0  0  0  0  0
    2.1926    1.8717   -0.6883 H   0  0  0  0  0  0  0  0  0  0  0  0
    3.7581    1.0404   -0.6126 H   0  0  0  0  0  0  0  0  0  0  0  0
  1  2  1  0
  1 17  1  0
  1 18  1  0
  1 19  1  0
  2  3  1  0
  2 16  1  0
  2 20  1  1
  3  4  1  0
  3 21  1  0
  3 22  1  0
  4  5  1  0
  4 23  1  0
  4 24  1  0
  5  6  1  0
  5 25  1  0
  5 26  1  0
  6  7  1  0
  6 16  1  0
  7  8  2  0
  7  9  1  0
  9 10  2  0
  9 14  1  0
 10 11  1  0
 10 27  1  0
 11 12  2  0
 11 28  1  0
 12 13  1  0
 13 14  2  0
 13 29  1  0
 14 15  1  0
 15 30  1  0
 16 31  1  0
 16 32  1  0
M  END

