
     RDKit          3D

102116  0  0  0  0  0  0  0  0999 V2000
    3.0711   -3.0117   -3.7747 C   0  0  0  0  0  0  0  0  0  0  0  0
    2.0812   -3.9813   -3.5836 C   0  0  0  0  0  0  0  0  0  0  0  0
    1.4309   -4.0785   -2.3542 C   0  0  0  0  0  0  0  0  0  0  0  0
    1.7454   -3.2210   -1.2820 C   0  0  0  0  0  0  0  0  0  0  0  0
    2.7504   -2.2591   -1.5025 C   0  0  0  0  0  0  0  0  0  0  0  0
    3.4042   -2.1484   -2.7316 C   0  0  0  0  0  0  0  0  0  0  0  0
    3.1892   -1.4388   -0.4731 O   0  0  0  0  0  0  0  0  0  0  0  0
    2.3190   -0.2230    0.1666 P   0  0  2  0  0  0  0  0  0  0  0  0
    2.1416    1.0776   -0.7981 N   0  0  0  0  0  0  0  0  0  0  0  0
    2.6042    2.3454    0.0340 P   0  0  2  0  0  0  0  0  0  0  0  0
    3.0823    1.6979    1.5057 N   0  0  0  0  0  0  0  0  0  0  0  0
    3.4374    2.3196    3.0779 P   0  0  0  0  0  0  0  0  0  0  0  0
    1.9018    2.5299    3.7500 O   0  0  0  0  0  0  0  0  0  0  0  0
    1.4060    1.7098    4.7374 C   0  0  0  0  0  0  0  0  0  0  0  0
    1.5378    0.3188    4.6542 C   0  0  0  0  0  0  0  0  0  0  0  0
    1.0131   -0.4942    5.6589 C   0  0  0  0  0  0  0  0  0  0  0  0
    0.3337    0.0528    6.7610 C   0  0  0  0  0  0  0  0  0  0  0  0
   -0.2228   -0.7606    7.8091 C   0  0  0  0  0  0  0  0  0  0  0  0
   -0.8826   -0.2047    8.8658 C   0  0  0  0  0  0  0  0  0  0  0  0
   -1.0479    1.2213    8.9766 C   0  0  0  0  0  0  0  0  0  0  0  0
   -1.7221    1.8190   10.0571 C   0  0  0  0  0  0  0  0  0  0  0  0
   -1.8618    3.2063   10.1334 C   0  0  0  0  0  0  0  0  0  0  0  0
   -1.3335    4.0289    9.1377 C   0  0  0  0  0  0  0  0  0  0  0  0
   -0.6504    3.4785    8.0368 C   0  0  0  0  0  0  0  0  0  0  0  0
   -0.0901    4.2927    6.9916 C   0  0  0  0  0  0  0  0  0  0  0  0
    0.5702    3.7406    5.9322 C   0  0  0  0  0  0  0  0  0  0  0  0
    0.7304    2.3165    5.8210 C   0  0  0  0  0  0  0  0  0  0  0  0
    0.1862    1.4742    6.8406 C   0  0  0  0  0  0  0  0  0  0  0  0
   -0.5038    2.0576    7.9495 C   0  0  0  0  0  0  0  0  0  0  0  0
    3.5986    3.8862    2.4962 O   0  0  0  0  0  0  0  0  0  0  0  0
    4.0670    4.9113    3.2926 C   0  0  0  0  0  0  0  0  0  0  0  0
    5.3508    4.8550    3.8428 C   0  0  0  0  0  0  0  0  0  0  0  0
    5.8345    5.9140    4.6095 C   0  0  0  0  0  0  0  0  0  0  0  0
    5.0529    7.0601    4.8376 C   0  0  0  0  0  0  0  0  0  0  0  0
    5.5245    8.1744    5.6162 C   0  0  0  0  0  0  0  0  0  0  0  0
    4.7469    9.2762    5.8217 C   0  0  0  0  0  0  0  0  0  0  0  0
    3.4202    9.3683    5.2702 C   0  0  0  0  0  0  0  0  0  0  0  0
    2.5979   10.4921    5.4712 C   0  0  0  0  0  0  0  0  0  0  0  0
    1.3145   10.5454    4.9242 C   0  0  0  0  0  0  0  0  0  0  0  0
    0.8207    9.4824    4.1664 C   0  0  0  0  0  0  0  0  0  0  0  0
    1.6052    8.3368    3.9368 C   0  0  0  0  0  0  0  0  0  0  0  0
    1.1304    7.2190    3.1646 C   0  0  0  0  0  0  0  0  0  0  0  0
    1.9057    6.1161    2.9501 C   0  0  0  0  0  0  0  0  0  0  0  0
    3.2342    6.0326    3.4952 C   0  0  0  0  0  0  0  0  0  0  0  0
    3.7396    7.1215    4.2729 C   0  0  0  0  0  0  0  0  0  0  0  0
    2.9227    8.2747    4.4920 C   0  0  0  0  0  0  0  0  0  0  0  0
    3.0267    0.2341    1.5288 N   0  0  0  0  0  0  0  0  0  0  0  0
    1.5004    3.4993    0.3171 O   0  0  0  0  0  0  0  0  0  0  0  0
    0.9926    4.2784   -0.7250 C   0  0  0  0  0  0  0  0  0  0  0  0
   -0.3313    4.0570   -1.1048 C   0  0  0  0  0  0  0  0  0  0  0  0
   -0.9061    4.8581   -2.0909 C   0  0  0  0  0  0  0  0  0  0  0  0
   -0.1477    5.8684   -2.6918 C   0  0  0  0  0  0  0  0  0  0  0  0
    1.1761    6.0723   -2.3048 C   0  0  0  0  0  0  0  0  0  0  0  0
    1.7851    5.2835   -1.3085 C   0  0  0  0  0  0  0  0  0  0  0  0
    3.1886    5.5320   -0.8946 C   0  0  0  0  0  0  0  0  0  0  0  0
    3.6782    6.8487   -0.7819 C   0  0  0  0  0  0  0  0  0  0  0  0
    5.0024    7.1122   -0.4370 C   0  0  0  0  0  0  0  0  0  0  0  0
    5.8838    6.0537   -0.1938 C   0  0  0  0  0  0  0  0  0  0  0  0
    5.4284    4.7400   -0.2906 C   0  0  0  0  0  0  0  0  0  0  0  0
    4.0985    4.4905   -0.6317 C   0  0  0  0  0  0  0  0  0  0  0  0
    3.7326    3.1590   -0.7931 O   0  0  0  0  0  0  0  0  0  0  0  0
    0.8396   -0.9399    0.2166 O   0  0  0  0  0  0  0  0  0  0  0  0
    0.6363   -2.2041    0.7409 C   0  0  0  0  0  0  0  0  0  0  0  0
   -0.0501   -2.3124    1.9531 C   0  0  0  0  0  0  0  0  0  0  0  0
   -0.3425   -3.5736    2.4727 C   0  0  0  0  0  0  0  0  0  0  0  0
    0.0573   -4.7217    1.7802 C   0  0  0  0  0  0  0  0  0  0  0  0
    0.7433   -4.6020    0.5720 C   0  0  0  0  0  0  0  0  0  0  0  0
    1.0502   -3.3430    0.0217 C   0  0  0  0  0  0  0  0  0  0  0  0
    3.5833   -2.9252   -4.7360 H   0  0  0  0  0  0  0  0  0  0  0  0
    1.8080   -4.6572   -4.3973 H   0  0  0  0  0  0  0  0  0  0  0  0
    0.6411   -4.8205   -2.2175 H   0  0  0  0  0  0  0  0  0  0  0  0
    4.1765   -1.3853   -2.8417 H   0  0  0  0  0  0  0  0  0  0  0  0
    2.0374   -0.1155    3.7833 H   0  0  0  0  0  0  0  0  0  0  0  0
    1.1266   -1.5791    5.5840 H   0  0  0  0  0  0  0  0  0  0  0  0
   -0.1043   -1.8456    7.7408 H   0  0  0  0  0  0  0  0  0  0  0  0
   -1.2990   -0.8385    9.6535 H   0  0  0  0  0  0  0  0  0  0  0  0
   -2.1376    1.1817   10.8424 H   0  0  0  0  0  0  0  0  0  0  0  0
   -2.3889    3.6516   10.9813 H   0  0  0  0  0  0  0  0  0  0  0  0
   -1.4455    5.1145    9.2047 H   0  0  0  0  0  0  0  0  0  0  0  0
   -0.2026    5.3781    7.0610 H   0  0  0  0  0  0  0  0  0  0  0  0
    0.9861    4.3730    5.1475 H   0  0  0  0  0  0  0  0  0  0  0  0
    5.9708    3.9753    3.6585 H   0  0  0  0  0  0  0  0  0  0  0  0
    6.8393    5.8576    5.0363 H   0  0  0  0  0  0  0  0  0  0  0  0
    6.5289    8.1194    6.0449 H   0  0  0  0  0  0  0  0  0  0  0  0
    5.1214   10.1138    6.4163 H   0  0  0  0  0  0  0  0  0  0  0  0
    2.9761   11.3282    6.0656 H   0  0  0  0  0  0  0  0  0  0  0  0
    0.6904   11.4269    5.0923 H   0  0  0  0  0  0  0  0  0  0  0  0
   -0.1863    9.5305    3.7433 H   0  0  0  0  0  0  0  0  0  0  0  0
    0.1211    7.2682    2.7469 H   0  0  0  0  0  0  0  0  0  0  0  0
    1.5346    5.2731    2.3672 H   0  0  0  0  0  0  0  0  0  0  0  0
   -0.8902    3.2597   -0.6123 H   0  0  0  0  0  0  0  0  0  0  0  0
   -1.9424    4.6893   -2.3922 H   0  0  0  0  0  0  0  0  0  0  0  0
   -0.5861    6.4939   -3.4728 H   0  0  0  0  0  0  0  0  0  0  0  0
    1.7687    6.8469   -2.7959 H   0  0  0  0  0  0  0  0  0  0  0  0
    2.9898    7.6794   -0.9501 H   0  0  0  0  0  0  0  0  0  0  0  0
    5.3448    8.1456   -0.3486 H   0  0  0  0  0  0  0  0  0  0  0  0
    6.9236    6.2499    0.0774 H   0  0  0  0  0  0  0  0  0  0  0  0
    6.0876    3.8891   -0.1117 H   0  0  0  0  0  0  0  0  0  0  0  0
   -0.3514   -1.3980    2.4670 H   0  0  0  0  0  0  0  0  0  0  0  0
   -0.8811   -3.6579    3.4196 H   0  0  0  0  0  0  0  0  0  0  0  0
   -0.1600   -5.7127    2.1856 H   0  0  0  0  0  0  0  0  0  0  0  0
    1.0700   -5.5006    0.0438 H   0  0  0  0  0  0  0  0  0  0  0  0
  1  2  2  0
  1  6  1  0
  1 69  1  0
  2  3  1  0
  2 70  1  0
  3  4  2  0
  3 71  1  0
  4  5  1  0
  4 68  1  0
  5  6  2  0
  5  7  1  0
  6 72  1  0
  7  8  1  0
  8  9  1  6
  8 47  2  0
  8 62  1  0
  9 10  2  0
 10 11  1  0
 10 48  1  1
 10 61  1  0
 11 12  1  0
 11 47  1  0
 12 13  1  0
 12 30  1  0
 13 14  1  0
 14 15  2  0
 14 27  1  0
 15 16  1  0
 15 73  1  0
 16 17  2  0
 16 74  1  0
 17 18  1  0
 17 28  1  0
 18 19  2  0
 18 75  1  0
 19 20  1  0
 19 76  1  0
 20 21  2  0
 20 29  1  0
 21 22  1  0
 21 77  1  0
 22 23  2  0
 22 78  1  0
 23 24  1  0
 23 79  1  0
 24 25  2  0
 24 29  1  0
 25 26  1  0
 25 80  1  0
 26 27  2  0
 26 81  1  0
 27 28  1  0
 28 29  2  0
 30 31  1  0
 31 32  2  0
 31 44  1  0
 32 33  1  0
 32 82  1  0
 33 34  2  0
 33 83  1  0
 34 35  1  0
 34 45  1  0
 35 36  2  0
 35 84  1  0
 36 37  1  0
 36 85  1  0
 37 38  2  0
 37 46  1  0
 38 39  1  0
 38 86  1  0
 39 40  2  0
 39 87  1  0
 40 41  1  0
 40 88  1  0
 41 42  2  0
 41 46  1  0
 42 43  1  0
 42 89  1  0
 43 44  2  0
 43 90  1  0
 44 45  1  0
 45 46  2  0
 48 49  1  0
 49 50  1  0
 49 54  2  0
 50 51  2  0
 50 91  1  0
 51 52  1  0
 51 92  1  0
 52 53  2  0
 52 93  1  0
 53 54  1  0
 53 94  1  0
 54 55  1  0
 55 56  1  0
 55 60  2  0
 56 57  2  0
 56 95  1  0
 57 58  1  0
 57 96  1  0
 58 59  2  0
 58 97  1  0
 59 60  1  0
 59 98  1  0
 60 61  1  0
 62 63  1  0
 63 64  1  0
 63 68  2  0
 64 65  2  0
 64 99  1  0
 65 66  1  0
 65100  1  0
 66 67  2  0
 66101  1  0
 67 68  1  0
 67102  1  0
M  END

