
     RDKit          3D

 50 53  0  0  0  0  0  0  0  0999 V2000
   10.0396    4.6327   -3.3123 C   0  0  0  0  0  0  0  0  0  0  0  0
    9.4281    3.4422   -2.6262 C   0  0  0  0  0  0  0  0  0  0  0  0
    8.7423    3.5737   -1.4095 C   0  0  0  0  0  0  0  0  0  0  0  0
    8.1668    2.4788   -0.7600 C   0  0  0  0  0  0  0  0  0  0  0  0
    8.2862    1.2161   -1.3393 C   0  0  0  0  0  0  0  0  0  0  0  0
    7.5338   -0.2042   -0.5382 S   0  0  1  0  0  0  0  0  0  0  0  0
    6.7512    0.3112    0.5921 O   0  0  0  0  0  0  0  0  0  0  0  0
    6.9165   -1.0408   -1.5712 O   0  0  0  0  0  0  0  0  0  0  0  0
    8.8669   -1.0731    0.0374 N   0  0  0  0  0  0  0  0  0  0  0  0
    9.4058   -0.7019    1.3511 C   0  0  0  0  0  0  0  0  0  0  0  0
    8.7758   -1.5252    2.4756 C   0  0  0  0  0  0  0  0  0  0  0  0
    8.8745   -2.9576    2.1851 N   0  0  0  0  0  0  0  0  0  0  0  0
    9.2554   -3.8515    3.1518 C   0  0  0  0  0  0  0  0  0  0  0  0
    9.1484   -5.2563    2.9992 C   0  0  0  0  0  0  0  0  0  0  0  0
    9.6238   -6.0461    4.0481 C   0  0  0  0  0  0  0  0  0  0  0  0
    9.5935   -7.4525    3.9526 N   0  0  0  0  0  0  0  0  0  0  0  0
    9.5542   -8.1769    2.7619 C   0  0  0  0  0  0  0  0  0  0  0  0
    9.5083   -9.4928    3.1282 C   0  0  0  0  0  0  0  0  0  0  0  0
    9.5043   -9.6117    4.4983 N   0  0  0  0  0  0  0  0  0  0  0  0
    9.5613   -8.3952    4.9856 C   0  0  0  0  0  0  0  0  0  0  0  0
    9.5579   -8.0858    6.4468 C   0  0  0  0  0  0  0  0  0  0  0  0
   10.1219   -5.5246    5.1750 N   0  0  0  0  0  0  0  0  0  0  0  0
   10.1386   -4.1953    5.2343 C   0  0  0  0  0  0  0  0  0  0  0  0
    9.7509   -3.3408    4.2996 N   0  0  0  0  0  0  0  0  0  0  0  0
    8.3199   -3.3454    0.8949 C   0  0  0  0  0  0  0  0  0  0  0  0
    8.9380   -2.5089   -0.2338 C   0  0  0  0  0  0  0  0  0  0  0  0
    8.9476    1.0363   -2.5571 C   0  0  0  0  0  0  0  0  0  0  0  0
    9.5125    2.1468   -3.1807 C   0  0  0  0  0  0  0  0  0  0  0  0
   10.3422    1.9118   -4.7042 Cl  0  0  0  0  0  0  0  0  0  0  0  0
    9.8741    5.5515   -2.7329 H   0  0  0  0  0  0  0  0  0  0  0  0
    9.6127    4.7714   -4.3188 H   0  0  0  0  0  0  0  0  0  0  0  0
   11.1244    4.4958   -3.4509 H   0  0  0  0  0  0  0  0  0  0  0  0
    8.6531    4.5670   -0.9621 H   0  0  0  0  0  0  0  0  0  0  0  0
    7.6201    2.5960    0.1765 H   0  0  0  0  0  0  0  0  0  0  0  0
    9.2371    0.3686    1.5310 H   0  0  0  0  0  0  0  0  0  0  0  0
   10.4965   -0.8688    1.3221 H   0  0  0  0  0  0  0  0  0  0  0  0
    7.7121   -1.2391    2.5686 H   0  0  0  0  0  0  0  0  0  0  0  0
    9.2774   -1.3359    3.4309 H   0  0  0  0  0  0  0  0  0  0  0  0
    8.6850   -5.7155    2.1309 H   0  0  0  0  0  0  0  0  0  0  0  0
    9.6132   -7.6968    1.7905 H   0  0  0  0  0  0  0  0  0  0  0  0
    9.4859  -10.3655    2.4763 H   0  0  0  0  0  0  0  0  0  0  0  0
    9.3962   -9.0329    6.9782 H   0  0  0  0  0  0  0  0  0  0  0  0
    8.7639   -7.3735    6.7176 H   0  0  0  0  0  0  0  0  0  0  0  0
   10.5067   -7.6346    6.7701 H   0  0  0  0  0  0  0  0  0  0  0  0
   10.5267   -3.7561    6.1623 H   0  0  0  0  0  0  0  0  0  0  0  0
    7.2210   -3.2077    0.8909 H   0  0  0  0  0  0  0  0  0  0  0  0
    8.5229   -4.4039    0.6931 H   0  0  0  0  0  0  0  0  0  0  0  0
    8.4285   -2.7217   -1.1817 H   0  0  0  0  0  0  0  0  0  0  0  0
   10.0050   -2.7716   -0.3434 H   0  0  0  0  0  0  0  0  0  0  0  0
    9.0154    0.0515   -3.0200 H   0  0  0  0  0  0  0  0  0  0  0  0
  1  2  1  0
  1 30  1  0
  1 31  1  0
  1 32  1  0
  2  3  2  0
  2 28  1  0
  3  4  1  0
  3 33  1  0
  4  5  2  0
  4 34  1  0
  6  5  1  6
  5 27  1  0
  6  7  2  0
  6  8  2  0
  6  9  1  0
  9 10  1  0
  9 26  1  0
 10 11  1  0
 10 35  1  0
 10 36  1  0
 11 12  1  0
 11 37  1  0
 11 38  1  0
 12 13  1  0
 12 25  1  0
 13 14  2  0
 13 24  1  0
 14 15  1  0
 14 39  1  0
 15 16  1  0
 15 22  2  0
 16 17  1  0
 16 20  1  0
 17 18  2  0
 17 40  1  0
 18 19  1  0
 18 41  1  0
 19 20  2  0
 20 21  1  0
 21 42  1  0
 21 43  1  0
 21 44  1  0
 22 23  1  0
 23 24  2  0
 23 45  1  0
 25 26  1  0
 25 46  1  0
 25 47  1  0
 26 48  1  0
 26 49  1  0
 27 28  2  0
 27 50  1  0
 28 29  1  0
M  END

