
     RDKit          3D

 43 44  0  0  0  0  0  0  0  0999 V2000
    1.0188    0.4168    0.3215 C   0  0  0  0  0  0  0  0  0  0  0  0
    2.5357    0.2252    0.2832 C   0  0  0  0  0  0  0  0  0  0  0  0
    2.9642   -1.2134   -0.0231 C   0  0  0  0  0  0  0  0  0  0  0  0
    4.4820   -1.4126   -0.0632 C   0  0  0  0  0  0  0  0  0  0  0  0
    4.9086   -2.8528   -0.3666 C   0  0  0  0  0  0  0  0  0  0  0  0
    6.4291   -3.0320   -0.4099 C   0  0  0  0  0  0  0  0  0  0  0  0
    6.8984   -4.4751   -0.6061 C   0  0  1  0  0  0  0  0  0  0  0  0
    6.5317   -5.0725   -1.9621 C   0  0  0  0  0  0  0  0  0  0  0  0
    8.3287   -4.4392   -0.4535 O   0  0  0  0  0  0  0  0  0  0  0  0
    9.0453   -5.5310   -0.0943 C   0  0  0  0  0  0  0  0  0  0  0  0
    8.5020   -6.7912    0.2362 C   0  0  0  0  0  0  0  0  0  0  0  0
    9.3329   -7.8534    0.6146 C   0  0  0  0  0  0  0  0  0  0  0  0
   10.7250   -7.7114    0.6779 C   0  0  0  0  0  0  0  0  0  0  0  0
   11.2499   -6.4631    0.3484 C   0  0  0  0  0  0  0  0  0  0  0  0
   10.4386   -5.3892   -0.0332 C   0  0  0  0  0  0  0  0  0  0  0  0
   11.3619   -4.2349   -0.3082 C   0  0  0  0  0  0  0  0  0  0  0  0
   11.0794   -3.0479   -0.6843 N   0  0  0  0  0  0  0  0  0  0  0  0
   12.6834   -4.6657   -0.0778 N   0  0  0  0  0  0  0  0  0  0  0  0
   12.6349   -5.9113    0.2907 C   0  0  0  0  0  0  0  0  0  0  0  0
   13.7310   -6.6498    0.5773 N   0  0  0  0  0  0  0  0  0  0  0  0
    0.7479    1.4613    0.5439 H   0  0  0  0  0  0  0  0  0  0  0  0
    0.5534   -0.2189    1.0935 H   0  0  0  0  0  0  0  0  0  0  0  0
    0.5565    0.1521   -0.6444 H   0  0  0  0  0  0  0  0  0  0  0  0
    2.9714    0.5347    1.2507 H   0  0  0  0  0  0  0  0  0  0  0  0
    2.9745    0.9025   -0.4721 H   0  0  0  0  0  0  0  0  0  0  0  0
    2.5289   -1.5243   -0.9915 H   0  0  0  0  0  0  0  0  0  0  0  0
    2.5264   -1.8923    0.7327 H   0  0  0  0  0  0  0  0  0  0  0  0
    4.9181   -1.0998    0.9033 H   0  0  0  0  0  0  0  0  0  0  0  0
    4.9198   -0.7368   -0.8210 H   0  0  0  0  0  0  0  0  0  0  0  0
    4.4616   -3.1631   -1.3276 H   0  0  0  0  0  0  0  0  0  0  0  0
    4.4797   -3.5269    0.3985 H   0  0  0  0  0  0  0  0  0  0  0  0
    6.8702   -2.6687    0.5336 H   0  0  0  0  0  0  0  0  0  0  0  0
    6.8620   -2.4094   -1.2129 H   0  0  0  0  0  0  0  0  0  0  0  0
    6.4712   -5.0909    0.2059 H   0  0  0  0  0  0  0  0  0  0  0  0
    6.9290   -4.4429   -2.7739 H   0  0  0  0  0  0  0  0  0  0  0  0
    5.4394   -5.1417   -2.0776 H   0  0  0  0  0  0  0  0  0  0  0  0
    6.9468   -6.0844   -2.0806 H   0  0  0  0  0  0  0  0  0  0  0  0
    7.4256   -6.9574    0.1996 H   0  0  0  0  0  0  0  0  0  0  0  0
    8.8743   -8.8144    0.8617 H   0  0  0  0  0  0  0  0  0  0  0  0
   11.3546   -8.5555    0.9703 H   0  0  0  0  0  0  0  0  0  0  0  0
   10.0632   -2.9672   -0.7838 H   0  0  0  0  0  0  0  0  0  0  0  0
   14.6325   -6.1889    0.5827 H   0  0  0  0  0  0  0  0  0  0  0  0
   13.6531   -7.5720    0.9790 H   0  0  0  0  0  0  0  0  0  0  0  0
  1  2  1  0
  1 21  1  0
  1 22  1  0
  1 23  1  0
  2  3  1  0
  2 24  1  0
  2 25  1  0
  3  4  1  0
  3 26  1  0
  3 27  1  0
  4  5  1  0
  4 28  1  0
  4 29  1  0
  5  6  1  0
  5 30  1  0
  5 31  1  0
  6  7  1  0
  6 32  1  0
  6 33  1  0
  7  8  1  0
  7  9  1  0
  7 34  1  1
  8 35  1  0
  8 36  1  0
  8 37  1  0
  9 10  1  0
 10 11  2  0
 10 15  1  0
 11 12  1  0
 11 38  1  0
 12 13  2  0
 12 39  1  0
 13 14  1  0
 13 40  1  0
 14 15  2  0
 14 19  1  0
 15 16  1  0
 16 17  2  0
 16 18  1  0
 17 41  1  0
 18 19  2  0
 19 20  1  0
 20 42  1  0
 20 43  1  0
M  END

