
     RDKit          3D

 29 30  0  0  0  0  0  0  0  0999 V2000
    2.7227   -1.5953   -0.1877 C   0  0  0  0  0  0  0  0  0  0  0  0
    2.4692   -0.2363    0.2650 N   0  0  0  0  0  0  0  0  0  0  0  0
    1.0712    0.1837    0.1645 C   0  0  0  0  0  0  0  0  0  0  0  0
    1.0008    1.6980   -0.0608 C   0  0  0  0  0  0  0  0  0  0  0  0
    1.8699    2.0741   -1.1006 O   0  0  0  0  0  0  0  0  0  0  0  0
    3.0770    0.0347    1.5656 C   0  0  0  0  0  0  0  0  0  0  0  0
    4.5789    0.2671    1.4963 C   0  0  0  0  0  0  0  0  0  0  0  0
    5.0767    1.2805    0.6790 C   0  0  0  0  0  0  0  0  0  0  0  0
    6.4788    1.5658    0.5876 C   0  0  0  0  0  0  0  0  0  0  0  0
    7.1237    2.3882   -0.0445 O   0  0  0  0  0  0  0  0  0  0  0  0
    7.1722    0.6601    1.4445 N   0  0  0  0  0  0  0  0  0  0  0  0
    8.5134    0.6318    1.6215 N   0  0  0  0  0  0  0  0  0  0  0  0
    9.0949    1.2975    1.1180 H   0  0  0  0  0  0  0  0  0  0  0  0
    8.7440   -0.3646    2.5125 C   0  0  0  0  0  0  0  0  0  0  0  0
    7.6463   -0.9617    2.9047 N   0  0  0  0  0  0  0  0  0  0  0  0
    6.6271   -0.3257    2.2386 C   0  0  0  0  0  0  0  0  0  0  0  0
    5.3326   -0.5445    2.2799 N   0  0  0  0  0  0  0  0  0  0  0  0
    2.3713   -1.7223   -1.2231 H   0  0  0  0  0  0  0  0  0  0  0  0
    2.2264   -2.3627    0.4457 H   0  0  0  0  0  0  0  0  0  0  0  0
    3.8038   -1.8016   -0.1694 H   0  0  0  0  0  0  0  0  0  0  0  0
    0.4608   -0.1168    1.0436 H   0  0  0  0  0  0  0  0  0  0  0  0
    0.6393   -0.3183   -0.7158 H   0  0  0  0  0  0  0  0  0  0  0  0
    1.2418    2.2365    0.8807 H   0  0  0  0  0  0  0  0  0  0  0  0
   -0.0305    1.9857   -0.3285 H   0  0  0  0  0  0  0  0  0  0  0  0
    2.5817    1.4095   -1.0652 H   0  0  0  0  0  0  0  0  0  0  0  0
    2.8992   -0.7853    2.2894 H   0  0  0  0  0  0  0  0  0  0  0  0
    2.6159    0.9430    1.9844 H   0  0  0  0  0  0  0  0  0  0  0  0
    4.4002    1.8969    0.0862 H   0  0  0  0  0  0  0  0  0  0  0  0
    9.7552   -0.6087    2.8399 H   0  0  0  0  0  0  0  0  0  0  0  0
  1  2  1  0
  1 18  1  0
  1 19  1  0
  1 20  1  0
  2  3  1  0
  2  6  1  0
  3  4  1  0
  3 21  1  0
  3 22  1  0
  4  5  1  0
  4 23  1  0
  4 24  1  0
  5 25  1  0
  6  7  1  0
  6 26  1  0
  6 27  1  0
  7  8  2  0
  7 17  1  0
  8  9  1  0
  8 28  1  0
  9 10  2  0
  9 11  1  0
 11 12  1  0
 11 16  1  0
 12 13  1  0
 12 14  1  0
 14 15  2  0
 14 29  1  0
 15 16  1  0
 16 17  2  0
M  END

