
     RDKit          3D

 45 48  0  0  0  0  0  0  0  0999 V2000
    1.6609    0.0996    1.6215 C   0  0  0  0  0  0  0  0  0  0  0  0
    2.8661   -0.0147    0.7990 N   0  0  0  0  0  0  0  0  0  0  0  0
    3.6990    1.1288    0.6663 C   0  0  0  0  0  0  0  0  0  0  0  0
    3.4103    2.1716    1.2299 O   0  0  0  0  0  0  0  0  0  0  0  0
    4.8679    0.9137   -0.1790 C   0  0  0  0  0  0  0  0  0  0  0  0
    5.9223    1.8431   -0.5198 C   0  0  0  0  0  0  0  0  0  0  0  0
    5.9825    3.2823   -0.0503 C   0  0  0  0  0  0  0  0  0  0  0  0
    7.4097    3.7411    0.2154 C   0  0  0  0  0  0  0  0  0  0  0  0
    8.1887    3.9757   -0.6933 O   0  0  0  0  0  0  0  0  0  0  0  0
    7.8174    3.9171    1.5241 N   0  0  0  0  0  0  0  0  0  0  0  0
    7.1723    3.6187    2.7280 C   0  0  0  0  0  0  0  0  0  0  0  0
    7.2975    4.3371    3.9460 C   0  0  0  0  0  0  0  0  0  0  0  0
    6.4769    3.6575    4.8425 C   0  0  0  0  0  0  0  0  0  0  0  0
    6.1740    3.8969    6.2579 C   0  0  0  0  0  0  0  0  0  0  0  0
    6.2868    5.1895    6.8036 C   0  0  0  0  0  0  0  0  0  0  0  0
    6.0054    5.4329    8.1471 C   0  0  0  0  0  0  0  0  0  0  0  0
    5.5962    4.3767    8.9674 C   0  0  0  0  0  0  0  0  0  0  0  0
    5.2027    4.7030   10.8022 Br  0  0  0  0  0  0  0  0  0  0  0  0
    5.4753    3.0833    8.4522 C   0  0  0  0  0  0  0  0  0  0  0  0
    5.7691    2.8506    7.1083 C   0  0  0  0  0  0  0  0  0  0  0  0
    5.9428    2.6240    4.1289 N   0  0  0  0  0  0  0  0  0  0  0  0
    5.2121    1.9892    4.4268 H   0  0  0  0  0  0  0  0  0  0  0  0
    6.3565    2.5762    2.8557 N   0  0  0  0  0  0  0  0  0  0  0  0
    6.8505    1.2709   -1.3454 C   0  0  0  0  0  0  0  0  0  0  0  0
    6.4920   -0.3942   -1.7279 S   0  0  0  0  0  0  0  0  0  0  0  0
    5.0529   -0.3299   -0.7608 C   0  0  0  0  0  0  0  0  0  0  0  0
    4.2029   -1.3951   -0.5896 N   0  0  0  0  0  0  0  0  0  0  0  0
    4.4683   -2.6746   -1.2346 C   0  0  0  0  0  0  0  0  0  0  0  0
    3.0644   -1.2655    0.2145 C   0  0  0  0  0  0  0  0  0  0  0  0
    2.2914   -2.1877    0.3927 O   0  0  0  0  0  0  0  0  0  0  0  0
    1.6165    1.1251    2.0007 H   0  0  0  0  0  0  0  0  0  0  0  0
    1.6974   -0.6192    2.4530 H   0  0  0  0  0  0  0  0  0  0  0  0
    0.7687   -0.1271    1.0207 H   0  0  0  0  0  0  0  0  0  0  0  0
    5.3232    3.4046    0.8135 H   0  0  0  0  0  0  0  0  0  0  0  0
    5.6151    3.9352   -0.8600 H   0  0  0  0  0  0  0  0  0  0  0  0
    8.7574    4.2979    1.5895 H   0  0  0  0  0  0  0  0  0  0  0  0
    7.9112    5.2119    4.1437 H   0  0  0  0  0  0  0  0  0  0  0  0
    6.5819    6.0224    6.1620 H   0  0  0  0  0  0  0  0  0  0  0  0
    6.0937    6.4412    8.5546 H   0  0  0  0  0  0  0  0  0  0  0  0
    5.1662    2.2608    9.0992 H   0  0  0  0  0  0  0  0  0  0  0  0
    5.7054    1.8280    6.7283 H   0  0  0  0  0  0  0  0  0  0  0  0
    7.7392    1.7444   -1.7585 H   0  0  0  0  0  0  0  0  0  0  0  0
    5.4376   -3.0796   -0.9010 H   0  0  0  0  0  0  0  0  0  0  0  0
    4.4898   -2.5558   -2.3301 H   0  0  0  0  0  0  0  0  0  0  0  0
    3.6646   -3.3638   -0.9545 H   0  0  0  0  0  0  0  0  0  0  0  0
  1  2  1  0
  1 31  1  0
  1 32  1  0
  1 33  1  0
  2  3  1  0
  2 29  1  0
  3  4  2  0
  3  5  1  0
  5  6  1  0
  5 26  2  0
  6  7  1  0
  6 24  2  0
  7  8  1  0
  7 34  1  0
  7 35  1  0
  8  9  2  0
  8 10  1  0
 10 11  1  0
 10 36  1  0
 11 12  1  0
 11 23  2  0
 12 13  2  0
 12 37  1  0
 13 14  1  0
 13 21  1  0
 14 15  2  0
 14 20  1  0
 15 16  1  0
 15 38  1  0
 16 17  2  0
 16 39  1  0
 17 18  1  0
 17 19  1  0
 19 20  2  0
 19 40  1  0
 20 41  1  0
 21 22  1  0
 21 23  1  0
 24 25  1  0
 24 42  1  0
 25 26  1  0
 26 27  1  0
 27 28  1  0
 27 29  1  0
 28 43  1  0
 28 44  1  0
 28 45  1  0
 29 30  2  0
M  END

