
     RDKit          3D

 35 37  0  0  0  0  0  0  0  0999 V2000
    2.7782    0.9923    2.3403 O   0  0  0  0  0  0  0  0  0  0  0  0
    3.2350    0.4855    1.3284 C   0  0  0  0  0  0  0  0  0  0  0  0
    4.0462   -0.7140    1.2372 C   0  0  0  0  0  0  0  0  0  0  0  0
    4.4738   -1.5686    2.3006 C   0  0  0  0  0  0  0  0  0  0  0  0
    5.2362   -2.6082    1.8447 C   0  0  0  0  0  0  0  0  0  0  0  0
    5.4606   -2.5808    0.1150 S   0  0  0  0  0  0  0  0  0  0  0  0
    4.5012   -1.1287   -0.0169 C   0  0  0  0  0  0  0  0  0  0  0  0
    4.2507   -0.5088   -1.1976 N   0  0  0  0  0  0  0  0  0  0  0  0
    3.5189    0.5589   -1.1131 C   0  0  0  0  0  0  0  0  0  0  0  0
    2.9953    1.0692    0.0484 N   0  0  0  0  0  0  0  0  0  0  0  0
    2.1960    2.2924    0.0153 C   0  0  0  0  0  0  0  0  0  0  0  0
    3.0577    3.5519    0.0479 C   0  0  1  0  0  0  0  0  0  0  0  0
    3.7929    3.6016   -1.1540 O   0  0  0  0  0  0  0  0  0  0  0  0
    2.2025    4.8078    0.2039 C   0  0  0  0  0  0  0  0  0  0  0  0
    3.1074    5.8964    0.0955 O   0  0  0  0  0  0  0  0  0  0  0  0
    2.6632    7.1716    0.0620 C   0  0  0  0  0  0  0  0  0  0  0  0
    1.3353    7.5457    0.3064 C   0  0  0  0  0  0  0  0  0  0  0  0
    0.9752    8.8972    0.2586 C   0  0  0  0  0  0  0  0  0  0  0  0
   -0.6871    9.3369    0.5695 Cl  0  0  0  0  0  0  0  0  0  0  0  0
    1.9117    9.8891   -0.0292 C   0  0  0  0  0  0  0  0  0  0  0  0
    3.2358    9.5132   -0.2759 C   0  0  0  0  0  0  0  0  0  0  0  0
    3.6136    8.1735   -0.2351 C   0  0  0  0  0  0  0  0  0  0  0  0
    5.2641    7.7124   -0.5595 Cl  0  0  0  0  0  0  0  0  0  0  0  0
    4.2162   -1.4018    3.3464 H   0  0  0  0  0  0  0  0  0  0  0  0
    5.6913   -3.4068    2.4291 H   0  0  0  0  0  0  0  0  0  0  0  0
    3.2845    1.1287   -2.0170 H   0  0  0  0  0  0  0  0  0  0  0  0
    1.5376    2.2676    0.8931 H   0  0  0  0  0  0  0  0  0  0  0  0
    1.5873    2.2924   -0.9017 H   0  0  0  0  0  0  0  0  0  0  0  0
    3.7310    3.4919    0.9256 H   0  0  0  0  0  0  0  0  0  0  0  0
    4.3016    4.4263   -1.1478 H   0  0  0  0  0  0  0  0  0  0  0  0
    1.6893    4.8167    1.1822 H   0  0  0  0  0  0  0  0  0  0  0  0
    1.4458    4.8639   -0.6004 H   0  0  0  0  0  0  0  0  0  0  0  0
    0.5765    6.8010    0.5406 H   0  0  0  0  0  0  0  0  0  0  0  0
    1.6130   10.9371   -0.0622 H   0  0  0  0  0  0  0  0  0  0  0  0
    3.9893   10.2677   -0.5081 H   0  0  0  0  0  0  0  0  0  0  0  0
  1  2  2  0
  2  3  1  0
  2 10  1  0
  3  4  1  0
  3  7  2  0
  4  5  2  0
  4 24  1  0
  5  6  1  0
  5 25  1  0
  6  7  1  0
  7  8  1  0
  8  9  2  0
  9 10  1  0
  9 26  1  0
 10 11  1  0
 11 12  1  0
 11 27  1  0
 11 28  1  0
 12 13  1  0
 12 14  1  0
 12 29  1  1
 13 30  1  0
 14 15  1  0
 14 31  1  0
 14 32  1  0
 15 16  1  0
 16 17  2  0
 16 22  1  0
 17 18  1  0
 17 33  1  0
 18 19  1  0
 18 20  2  0
 20 21  1  0
 20 34  1  0
 21 22  2  0
 21 35  1  0
 22 23  1  0
M  END

