
     RDKit          3D

 33 33  0  0  0  0  0  0  0  0999 V2000
    1.2319    2.6438   -0.0744 C   0  0  0  0  0  0  0  0  0  0  0  0
    2.6015    2.1724   -0.5603 C   0  0  0  0  0  0  0  0  0  0  0  0
    3.1804    1.1293    0.2857 N   0  0  0  0  0  0  0  0  0  0  0  0
    2.6488   -0.2136    0.0589 C   0  0  0  0  0  0  0  0  0  0  0  0
    2.4696   -0.9777    1.3736 C   0  0  0  0  0  0  0  0  0  0  0  0
    1.6588   -0.2663    2.2705 O   0  0  0  0  0  0  0  0  0  0  0  0
    4.6167    1.1955    0.4508 C   0  0  0  0  0  0  0  0  0  0  0  0
    5.0814    2.2355    1.4853 C   0  0  1  0  0  0  0  0  0  0  0  0
    4.3730    1.8303    3.1274 Cl  0  0  0  0  0  0  0  0  0  0  0  0
    6.5853    2.3517    1.5655 C   0  0  0  0  0  0  0  0  0  0  0  0
    7.2284    3.4725    1.0218 C   0  0  0  0  0  0  0  0  0  0  0  0
    8.6223    3.5785    1.0208 C   0  0  0  0  0  0  0  0  0  0  0  0
    9.3837    2.5484    1.5755 C   0  0  0  0  0  0  0  0  0  0  0  0
   11.2855    2.6805    1.5863 Br  0  0  0  0  0  0  0  0  0  0  0  0
    8.7657    1.4229    2.1309 C   0  0  0  0  0  0  0  0  0  0  0  0
    7.3738    1.3316    2.1216 C   0  0  0  0  0  0  0  0  0  0  0  0
    0.8126    3.3988   -0.7592 H   0  0  0  0  0  0  0  0  0  0  0  0
    1.3108    3.0876    0.9304 H   0  0  0  0  0  0  0  0  0  0  0  0
    0.5147    1.8109   -0.0104 H   0  0  0  0  0  0  0  0  0  0  0  0
    3.2890    3.0341   -0.5653 H   0  0  0  0  0  0  0  0  0  0  0  0
    2.5367    1.8378   -1.6193 H   0  0  0  0  0  0  0  0  0  0  0  0
    3.2746   -0.8006   -0.6494 H   0  0  0  0  0  0  0  0  0  0  0  0
    1.6568   -0.1124   -0.4064 H   0  0  0  0  0  0  0  0  0  0  0  0
    3.4623   -1.2122    1.8145 H   0  0  0  0  0  0  0  0  0  0  0  0
    1.9804   -1.9449    1.1687 H   0  0  0  0  0  0  0  0  0  0  0  0
    2.0860    0.5998    2.3738 H   0  0  0  0  0  0  0  0  0  0  0  0
    5.1433    1.4357   -0.5000 H   0  0  0  0  0  0  0  0  0  0  0  0
    4.9946    0.2114    0.7673 H   0  0  0  0  0  0  0  0  0  0  0  0
    4.6523    3.2165    1.2423 H   0  0  0  0  0  0  0  0  0  0  0  0
    6.6347    4.2838    0.5912 H   0  0  0  0  0  0  0  0  0  0  0  0
    9.1102    4.4576    0.5969 H   0  0  0  0  0  0  0  0  0  0  0  0
    9.3688    0.6273    2.5712 H   0  0  0  0  0  0  0  0  0  0  0  0
    6.8916    0.4643    2.5782 H   0  0  0  0  0  0  0  0  0  0  0  0
  1  2  1  0
  1 17  1  0
  1 18  1  0
  1 19  1  0
  2  3  1  0
  2 20  1  0
  2 21  1  0
  3  4  1  0
  3  7  1  0
  4  5  1  0
  4 22  1  0
  4 23  1  0
  5  6  1  0
  5 24  1  0
  5 25  1  0
  6 26  1  0
  7  8  1  0
  7 27  1  0
  7 28  1  0
  8  9  1  0
  8 10  1  0
  8 29  1  6
 10 11  2  0
 10 16  1  0
 11 12  1  0
 11 30  1  0
 12 13  2  0
 12 31  1  0
 13 14  1  0
 13 15  1  0
 15 16  2  0
 15 32  1  0
 16 33  1  0
M  END

