
     RDKit          3D

 40 41  0  0  0  0  0  0  0  0999 V2000
    9.0824   -1.1091   -1.3745 C   0  0  0  0  0  0  0  0  0  0  0  0
    8.3910   -0.4638   -0.3043 O   0  0  0  0  0  0  0  0  0  0  0  0
    7.1183   -0.8102   -0.1169 C   0  0  0  0  0  0  0  0  0  0  0  0
    6.5833   -1.6469   -0.8387 O   0  0  0  0  0  0  0  0  0  0  0  0
    6.4364   -0.1152    1.0053 C   0  0  0  0  0  0  0  0  0  0  0  0
    7.0861    0.8527    1.8099 C   0  0  0  0  0  0  0  0  0  0  0  0
    8.3590    1.1802    1.5798 F   0  0  0  0  0  0  0  0  0  0  0  0
    6.4583    1.5059    2.8600 C   0  0  0  0  0  0  0  0  0  0  0  0
    5.1255    1.1960    3.1375 C   0  0  0  0  0  0  0  0  0  0  0  0
    4.4295    0.2562    2.3870 C   0  0  0  0  0  0  0  0  0  0  0  0
    5.0614   -0.4109    1.3176 C   0  0  0  0  0  0  0  0  0  0  0  0
    4.3957   -1.3545    0.5468 N   0  0  0  0  0  0  0  0  0  0  0  0
    3.0804   -1.7904    0.6611 C   0  0  0  0  0  0  0  0  0  0  0  0
    2.2748   -1.3949    1.4905 O   0  0  0  0  0  0  0  0  0  0  0  0
    2.7400   -2.7475   -0.2715 N   0  0  0  0  0  0  0  0  0  0  0  0
    1.4020   -3.3266   -0.2621 C   0  0  0  0  0  0  0  0  0  0  0  0
    1.5984   -4.6901   -0.9511 C   0  0  1  0  0  0  0  0  0  0  0  0
    1.9800   -5.4194   -0.2169 H   0  0  0  0  0  0  0  0  0  0  0  0
    0.3162   -5.1854   -1.6253 C   0  0  0  0  0  0  0  0  0  0  0  0
   -0.2280   -4.5703   -2.5004 O   0  0  0  0  0  0  0  0  0  0  0  0
   -0.1931   -6.3450   -1.1708 O   0  0  0  0  0  0  0  0  0  0  0  0
    2.7122   -4.3765   -1.9741 C   0  0  2  0  0  0  0  0  0  0  0  0
    2.2383   -3.9230   -2.8585 H   0  0  0  0  0  0  0  0  0  0  0  0
    3.4585   -5.6038   -2.4575 C   0  0  1  0  0  0  0  0  0  0  0  0
    4.0496   -6.2656   -1.4408 F   0  0  0  0  0  0  0  0  0  0  0  0
    2.6259   -6.4720   -3.0591 F   0  0  0  0  0  0  0  0  0  0  0  0
    4.4183   -5.2783   -3.3353 F   0  0  0  0  0  0  0  0  0  0  0  0
    3.6198   -3.3521   -1.2667 C   0  0  0  0  0  0  0  0  0  0  0  0
   10.0986   -0.6974   -1.3639 H   0  0  0  0  0  0  0  0  0  0  0  0
    8.5938   -0.9009   -2.3381 H   0  0  0  0  0  0  0  0  0  0  0  0
    9.1076   -2.1987   -1.2238 H   0  0  0  0  0  0  0  0  0  0  0  0
    7.0234    2.2403    3.4353 H   0  0  0  0  0  0  0  0  0  0  0  0
    4.6156    1.7017    3.9614 H   0  0  0  0  0  0  0  0  0  0  0  0
    3.3921    0.0158    2.6020 H   0  0  0  0  0  0  0  0  0  0  0  0
    4.9917   -1.7391   -0.1932 H   0  0  0  0  0  0  0  0  0  0  0  0
    0.6869   -2.7164   -0.8419 H   0  0  0  0  0  0  0  0  0  0  0  0
    1.0247   -3.4025    0.7667 H   0  0  0  0  0  0  0  0  0  0  0  0
    0.3790   -6.7281   -0.4909 H   0  0  0  0  0  0  0  0  0  0  0  0
    4.0185   -2.6143   -1.9822 H   0  0  0  0  0  0  0  0  0  0  0  0
    4.4861   -3.8448   -0.7904 H   0  0  0  0  0  0  0  0  0  0  0  0
  1  2  1  0
  1 29  1  0
  1 30  1  0
  1 31  1  0
  2  3  1  0
  3  4  2  0
  3  5  1  0
  5  6  2  0
  5 11  1  0
  6  7  1  0
  6  8  1  0
  8  9  2  0
  8 32  1  0
  9 10  1  0
  9 33  1  0
 10 11  2  0
 10 34  1  0
 11 12  1  0
 12 13  1  0
 12 35  1  0
 13 14  2  0
 13 15  1  0
 15 16  1  0
 15 28  1  0
 16 17  1  0
 16 36  1  0
 16 37  1  0
 17 18  1  1
 17 19  1  0
 17 22  1  0
 19 20  2  0
 19 21  1  0
 21 38  1  0
 22 23  1  6
 22 24  1  0
 22 28  1  0
 24 25  1  1
 24 26  1  0
 24 27  1  0
 28 39  1  0
 28 40  1  0
M  END

