
     RDKit          3D

 57 61  0  0  0  0  0  0  0  0999 V2000
    2.6893   -0.8024    1.8722 C   0  0  0  0  0  0  0  0  0  0  0  0
    3.5144   -0.5071    0.6308 C   0  0  0  0  0  0  0  0  0  0  0  0
    4.2358    0.7341    0.7508 O   0  0  0  0  0  0  0  0  0  0  0  0
    3.5699    1.8682    0.4362 C   0  0  0  0  0  0  0  0  0  0  0  0
    2.4230    1.8871    0.0516 O   0  0  0  0  0  0  0  0  0  0  0  0
    4.3781    3.0784    0.6653 C   0  0  0  0  0  0  0  0  0  0  0  0
    3.8370    4.3843    0.7574 C   0  0  0  0  0  0  0  0  0  0  0  0
    4.7594    5.2689    1.1048 N   0  0  0  0  0  0  0  0  0  0  0  0
    5.8993    4.5683    1.2467 N   0  0  0  0  0  0  0  0  0  0  0  0
    7.1193    5.2689    1.6571 C   0  0  0  0  0  0  0  0  0  0  0  0
    8.0225    5.6580    0.5030 C   0  0  0  0  0  0  0  0  0  0  0  0
    7.5683    6.5417   -0.4904 C   0  0  0  0  0  0  0  0  0  0  0  0
    8.4027    6.9022   -1.5504 C   0  0  0  0  0  0  0  0  0  0  0  0
    9.7029    6.3879   -1.6296 C   0  0  0  0  0  0  0  0  0  0  0  0
   10.1625    5.5107   -0.6444 C   0  0  0  0  0  0  0  0  0  0  0  0
    9.3246    5.1457    0.4157 C   0  0  0  0  0  0  0  0  0  0  0  0
    5.7360    3.2449    0.9682 C   0  0  0  0  0  0  0  0  0  0  0  0
    6.8667    2.2750    1.1377 C   0  0  0  0  0  0  0  0  0  0  0  0
    7.4880    2.2440    2.1854 O   0  0  0  0  0  0  0  0  0  0  0  0
    7.1643    1.4416    0.0640 N   0  0  0  0  0  0  0  0  0  0  0  0
    6.6815    1.6688   -1.2695 C   0  0  0  0  0  0  0  0  0  0  0  0
    6.8986    2.8974   -1.9081 C   0  0  0  0  0  0  0  0  0  0  0  0
    6.4289    3.0995   -3.2088 C   0  0  0  0  0  0  0  0  0  0  0  0
    5.7670    2.0737   -3.8882 C   0  0  0  0  0  0  0  0  0  0  0  0
    5.5750    0.8386   -3.2595 C   0  0  0  0  0  0  0  0  0  0  0  0
    6.0261    0.6349   -1.9548 C   0  0  0  0  0  0  0  0  0  0  0  0
    8.0489    0.3385    0.2672 C   0  0  0  0  0  0  0  0  0  0  0  0
    9.1189    0.1351   -0.6608 C   0  0  0  0  0  0  0  0  0  0  0  0
    9.9823   -0.9168   -0.5070 C   0  0  0  0  0  0  0  0  0  0  0  0
    9.8038   -1.7594    0.5504 N   0  0  0  0  0  0  0  0  0  0  0  0
   10.5455   -2.8419    0.8572 N   0  0  0  0  0  0  0  0  0  0  0  0
    9.9408   -3.2881    1.9586 C   0  0  0  0  0  0  0  0  0  0  0  0
    8.8731   -2.5840    2.3861 N   0  0  0  0  0  0  0  0  0  0  0  0
    8.7824   -1.6021    1.4878 C   0  0  0  0  0  0  0  0  0  0  0  0
    7.8800   -0.5261    1.3322 C   0  0  0  0  0  0  0  0  0  0  0  0
    2.2171   -1.7936    1.7788 H   0  0  0  0  0  0  0  0  0  0  0  0
    1.8929   -0.0545    1.9982 H   0  0  0  0  0  0  0  0  0  0  0  0
    3.3207   -0.8062    2.7742 H   0  0  0  0  0  0  0  0  0  0  0  0
    2.8771   -0.4634   -0.2646 H   0  0  0  0  0  0  0  0  0  0  0  0
    4.2938   -1.2689    0.4830 H   0  0  0  0  0  0  0  0  0  0  0  0
    2.8005    4.6796    0.6019 H   0  0  0  0  0  0  0  0  0  0  0  0
    7.6495    4.6232    2.3674 H   0  0  0  0  0  0  0  0  0  0  0  0
    6.7639    6.1611    2.1907 H   0  0  0  0  0  0  0  0  0  0  0  0
    6.5521    6.9404   -0.4287 H   0  0  0  0  0  0  0  0  0  0  0  0
    8.0404    7.5931   -2.3161 H   0  0  0  0  0  0  0  0  0  0  0  0
   10.3562    6.6744   -2.4577 H   0  0  0  0  0  0  0  0  0  0  0  0
   11.1766    5.1064   -0.6989 H   0  0  0  0  0  0  0  0  0  0  0  0
    9.6836    4.4533    1.1823 H   0  0  0  0  0  0  0  0  0  0  0  0
    7.4381    3.6922   -1.3917 H   0  0  0  0  0  0  0  0  0  0  0  0
    6.5954    4.0643   -3.6936 H   0  0  0  0  0  0  0  0  0  0  0  0
    5.4057    2.2326   -4.9070 H   0  0  0  0  0  0  0  0  0  0  0  0
    5.0618    0.0297   -3.7853 H   0  0  0  0  0  0  0  0  0  0  0  0
    5.8716   -0.3243   -1.4588 H   0  0  0  0  0  0  0  0  0  0  0  0
    9.2538    0.8207   -1.4968 H   0  0  0  0  0  0  0  0  0  0  0  0
   10.8214   -1.1406   -1.1658 H   0  0  0  0  0  0  0  0  0  0  0  0
   10.3088   -4.1782    2.4704 H   0  0  0  0  0  0  0  0  0  0  0  0
    7.0832   -0.3972    2.0621 H   0  0  0  0  0  0  0  0  0  0  0  0
  1  2  1  0
  1 36  1  0
  1 37  1  0
  1 38  1  0
  2  3  1  0
  2 39  1  0
  2 40  1  0
  3  4  1  0
  4  5  2  0
  4  6  1  0
  6  7  1  0
  6 17  2  0
  7  8  2  0
  7 41  1  0
  8  9  1  0
  9 10  1  0
  9 17  1  0
 10 11  1  0
 10 42  1  0
 10 43  1  0
 11 12  2  0
 11 16  1  0
 12 13  1  0
 12 44  1  0
 13 14  2  0
 13 45  1  0
 14 15  1  0
 14 46  1  0
 15 16  2  0
 15 47  1  0
 16 48  1  0
 17 18  1  0
 18 19  2  0
 18 20  1  0
 20 21  1  0
 20 27  1  0
 21 22  2  0
 21 26  1  0
 22 23  1  0
 22 49  1  0
 23 24  2  0
 23 50  1  0
 24 25  1  0
 24 51  1  0
 25 26  2  0
 25 52  1  0
 26 53  1  0
 27 28  1  0
 27 35  2  0
 28 29  2  0
 28 54  1  0
 29 30  1  0
 29 55  1  0
 30 31  1  0
 30 34  1  0
 31 32  2  0
 32 33  1  0
 32 56  1  0
 33 34  2  0
 34 35  1  0
 35 57  1  0
M  END

