
     RDKit          3D

 44 44  0  0  0  0  0  0  0  0999 V2000
    0.8406    1.1715   -0.2962 C   0  0  0  0  0  0  0  0  0  0  0  0
    2.3015    0.7559   -0.2172 C   0  0  0  0  0  0  0  0  0  0  0  0
    2.8238    0.0553   -1.0672 O   0  0  0  0  0  0  0  0  0  0  0  0
    2.9955    1.2195    0.8697 N   0  0  0  0  0  0  0  0  0  0  0  0
    4.3900    0.8444    1.1045 C   0  0  1  0  0  0  0  0  0  0  0  0
    5.3624    1.6291    0.2021 C   0  0  0  0  0  0  0  0  0  0  0  0
    5.4640    3.0974    0.6135 C   0  0  0  0  0  0  0  0  0  0  0  0
    5.8361    3.2238    2.0320 N   0  0  0  0  0  0  0  0  0  0  0  0
    6.9565    3.9224    2.3647 C   0  0  0  0  0  0  0  0  0  0  0  0
    7.6642    4.4358    1.4834 O   0  0  0  0  0  0  0  0  0  0  0  0
    7.3721    4.0944    3.8242 C   0  0  1  0  0  0  0  0  0  0  0  0
    8.8785    3.7892    4.0234 C   0  0  0  0  0  0  0  0  0  0  0  0
    9.2758    3.2928    5.0483 O   0  0  0  0  0  0  0  0  0  0  0  0
    9.6934    4.1446    3.0356 O   0  0  0  0  0  0  0  0  0  0  0  0
    7.0040    5.5376    4.3858 C   0  0  1  0  0  0  0  0  0  0  0  0
    5.5123    5.8247    4.1230 C   0  0  0  0  0  0  0  0  0  0  0  0
    7.2435    5.5462    5.9079 C   0  0  0  0  0  0  0  0  0  0  0  0
    7.8490    6.6439    3.7267 C   0  0  0  0  0  0  0  0  0  0  0  0
    4.9131    2.5477    2.9409 C   0  0  0  0  0  0  0  0  0  0  0  0
    4.7630    1.0618    2.5777 C   0  0  0  0  0  0  0  0  0  0  0  0
    0.2184    0.2641   -0.3233 H   0  0  0  0  0  0  0  0  0  0  0  0
    0.6773    1.7014   -1.2467 H   0  0  0  0  0  0  0  0  0  0  0  0
    0.5084    1.8117    0.5345 H   0  0  0  0  0  0  0  0  0  0  0  0
    2.5011    1.7596    1.5683 H   0  0  0  0  0  0  0  0  0  0  0  0
    4.4773   -0.2243    0.8531 H   0  0  0  0  0  0  0  0  0  0  0  0
    5.0318    1.5453   -0.8435 H   0  0  0  0  0  0  0  0  0  0  0  0
    6.3600    1.1627    0.2661 H   0  0  0  0  0  0  0  0  0  0  0  0
    4.4904    3.5995    0.4647 H   0  0  0  0  0  0  0  0  0  0  0  0
    6.2152    3.6324    0.0230 H   0  0  0  0  0  0  0  0  0  0  0  0
    6.8715    3.3718    4.4770 H   0  0  0  0  0  0  0  0  0  0  0  0
    9.1336    4.4337    2.2647 H   0  0  0  0  0  0  0  0  0  0  0  0
    4.8619    5.0626    4.5819 H   0  0  0  0  0  0  0  0  0  0  0  0
    5.2805    5.8781    3.0478 H   0  0  0  0  0  0  0  0  0  0  0  0
    5.2375    6.7956    4.5651 H   0  0  0  0  0  0  0  0  0  0  0  0
    6.6147    4.7978    6.4172 H   0  0  0  0  0  0  0  0  0  0  0  0
    6.9884    6.5362    6.3188 H   0  0  0  0  0  0  0  0  0  0  0  0
    8.2891    5.3251    6.1614 H   0  0  0  0  0  0  0  0  0  0  0  0
    7.7170    6.6617    2.6352 H   0  0  0  0  0  0  0  0  0  0  0  0
    8.9215    6.5197    3.9370 H   0  0  0  0  0  0  0  0  0  0  0  0
    7.5437    7.6255    4.1233 H   0  0  0  0  0  0  0  0  0  0  0  0
    3.9333    3.0609    2.8901 H   0  0  0  0  0  0  0  0  0  0  0  0
    5.2537    2.6431    3.9761 H   0  0  0  0  0  0  0  0  0  0  0  0
    4.0132    0.5954    3.2385 H   0  0  0  0  0  0  0  0  0  0  0  0
    5.7219    0.5549    2.7713 H   0  0  0  0  0  0  0  0  0  0  0  0
  1  2  1  0
  1 21  1  0
  1 22  1  0
  1 23  1  0
  2  3  2  0
  2  4  1  0
  4  5  1  0
  4 24  1  0
  5  6  1  0
  5 20  1  0
  5 25  1  6
  6  7  1  0
  6 26  1  0
  6 27  1  0
  7  8  1  0
  7 28  1  0
  7 29  1  0
  8  9  1  0
  8 19  1  0
  9 10  2  0
  9 11  1  0
 11 12  1  0
 11 15  1  0
 11 30  1  1
 12 13  2  0
 12 14  1  0
 14 31  1  0
 15 16  1  1
 15 17  1  0
 15 18  1  0
 16 32  1  0
 16 33  1  0
 16 34  1  0
 17 35  1  0
 17 36  1  0
 17 37  1  0
 18 38  1  0
 18 39  1  0
 18 40  1  0
 19 20  1  0
 19 41  1  0
 19 42  1  0
 20 43  1  0
 20 44  1  0
M  END

