
     RDKit          3D

 46 46  0  0  0  0  0  0  0  0999 V2000
    4.7191   -3.3629    1.1922 C   0  0  0  0  0  0  0  0  0  0  0  0
    5.0510   -3.5887   -0.2778 C   0  0  0  0  0  0  0  0  0  0  0  0
    3.9172   -2.6581   -1.3382 S   0  0  1  0  0  0  0  0  0  0  0  0
    2.5864   -3.2627   -1.2287 O   0  0  0  0  0  0  0  0  0  0  0  0
    4.1301   -1.2277   -1.0787 O   0  0  0  0  0  0  0  0  0  0  0  0
    4.4651   -3.0256   -2.9061 N   0  0  0  0  0  0  0  0  0  0  0  0
    5.2335   -2.0011   -3.6301 C   0  0  0  0  0  0  0  0  0  0  0  0
    6.6915   -1.9622   -3.2187 C   0  0  0  0  0  0  0  0  0  0  0  0
    7.5496   -3.0275   -3.5356 C   0  0  0  0  0  0  0  0  0  0  0  0
    8.8917   -2.9988   -3.1599 C   0  0  0  0  0  0  0  0  0  0  0  0
    9.4095   -1.9002   -2.4504 C   0  0  0  0  0  0  0  0  0  0  0  0
   10.8445   -1.7816   -2.0185 C   0  0  0  0  0  0  0  0  0  0  0  0
   11.3309   -0.7190   -1.6761 O   0  0  0  0  0  0  0  0  0  0  0  0
   11.5941   -2.9513   -2.0496 N   0  0  0  0  0  0  0  0  0  0  0  0
   12.9398   -3.0026   -1.4789 C   0  0  1  0  0  0  0  0  0  0  0  0
   13.0164   -3.7380   -0.1383 C   0  0  0  0  0  0  0  0  0  0  0  0
   12.2948   -3.0261    0.9972 C   0  0  0  0  0  0  0  0  0  0  0  0
   12.4245   -3.8075    2.1574 O   0  0  0  0  0  0  0  0  0  0  0  0
   11.8218   -3.2464    3.2921 C   0  0  0  0  0  0  0  0  0  0  0  0
   13.9542   -3.5782   -2.4918 C   0  0  0  0  0  0  0  0  0  0  0  0
   15.0141   -4.0388   -2.1678 O   0  0  0  0  0  0  0  0  0  0  0  0
   13.5793   -3.4843   -3.7771 O   0  0  0  0  0  0  0  0  0  0  0  0
    8.5547   -0.8321   -2.1409 C   0  0  0  0  0  0  0  0  0  0  0  0
    7.2103   -0.8676   -2.5123 C   0  0  0  0  0  0  0  0  0  0  0  0
    5.4087   -3.9436    1.8238 H   0  0  0  0  0  0  0  0  0  0  0  0
    3.6909   -3.6847    1.4138 H   0  0  0  0  0  0  0  0  0  0  0  0
    4.8166   -2.2994    1.4549 H   0  0  0  0  0  0  0  0  0  0  0  0
    4.9366   -4.6377   -0.5872 H   0  0  0  0  0  0  0  0  0  0  0  0
    6.0612   -3.2443   -0.5441 H   0  0  0  0  0  0  0  0  0  0  0  0
    3.6594   -3.3864   -3.4167 H   0  0  0  0  0  0  0  0  0  0  0  0
    4.7870   -1.0006   -3.5113 H   0  0  0  0  0  0  0  0  0  0  0  0
    5.1639   -2.2726   -4.6953 H   0  0  0  0  0  0  0  0  0  0  0  0
    7.1618   -3.8866   -4.0895 H   0  0  0  0  0  0  0  0  0  0  0  0
    9.5361   -3.8305   -3.4559 H   0  0  0  0  0  0  0  0  0  0  0  0
   11.0770   -3.8255   -2.0489 H   0  0  0  0  0  0  0  0  0  0  0  0
   13.2299   -1.9473   -1.3348 H   0  0  0  0  0  0  0  0  0  0  0  0
   14.0779   -3.8573    0.1211 H   0  0  0  0  0  0  0  0  0  0  0  0
   12.6077   -4.7590   -0.2415 H   0  0  0  0  0  0  0  0  0  0  0  0
   11.2213   -2.8735    0.7517 H   0  0  0  0  0  0  0  0  0  0  0  0
   12.7256   -2.0135    1.1483 H   0  0  0  0  0  0  0  0  0  0  0  0
   11.9825   -3.9352    4.1343 H   0  0  0  0  0  0  0  0  0  0  0  0
   10.7295   -3.1038    3.1567 H   0  0  0  0  0  0  0  0  0  0  0  0
   12.2604   -2.2617    3.5531 H   0  0  0  0  0  0  0  0  0  0  0  0
   12.6794   -3.1118   -3.7948 H   0  0  0  0  0  0  0  0  0  0  0  0
    8.9675    0.0228   -1.6023 H   0  0  0  0  0  0  0  0  0  0  0  0
    6.5475   -0.0424   -2.2421 H   0  0  0  0  0  0  0  0  0  0  0  0
  1  2  1  0
  1 25  1  0
  1 26  1  0
  1 27  1  0
  2  3  1  0
  2 28  1  0
  2 29  1  0
  3  4  2  0
  3  5  2  0
  3  6  1  6
  6  7  1  0
  6 30  1  0
  7  8  1  0
  7 31  1  0
  7 32  1  0
  8  9  2  0
  8 24  1  0
  9 10  1  0
  9 33  1  0
 10 11  2  0
 10 34  1  0
 11 12  1  0
 11 23  1  0
 12 13  2  0
 12 14  1  0
 14 15  1  0
 14 35  1  0
 15 16  1  0
 15 20  1  0
 15 36  1  1
 16 17  1  0
 16 37  1  0
 16 38  1  0
 17 18  1  0
 17 39  1  0
 17 40  1  0
 18 19  1  0
 19 41  1  0
 19 42  1  0
 19 43  1  0
 20 21  2  0
 20 22  1  0
 22 44  1  0
 23 24  2  0
 23 45  1  0
 24 46  1  0
M  END

