
     RDKit          3D

 48 52  0  0  0  0  0  0  0  0999 V2000
    0.7771    0.8073   -0.7040 O   0  0  0  0  0  0  0  0  0  0  0  0
    1.7791    0.2903   -0.2224 C   0  0  0  0  0  0  0  0  0  0  0  0
    2.2281   -0.9698   -0.5015 N   0  0  0  0  0  0  0  0  0  0  0  0
    1.6798   -1.9323   -1.3663 C   0  0  0  0  0  0  0  0  0  0  0  0
    0.4990   -1.7017   -2.1185 C   0  0  0  0  0  0  0  0  0  0  0  0
   -0.0199   -2.6812   -2.9709 C   0  0  0  0  0  0  0  0  0  0  0  0
    0.6718   -3.8813   -3.0441 C   0  0  0  0  0  0  0  0  0  0  0  0
    0.4017   -5.0043   -3.7838 O   0  0  0  0  0  0  0  0  0  0  0  0
    1.4146   -5.8759   -3.4637 C   0  0  0  0  0  0  0  0  0  0  0  0
    1.4015   -7.1950   -4.1100 C   0  0  1  0  0  0  0  0  0  0  0  0
    0.0870   -7.8929   -4.4142 C   0  0  0  0  0  0  0  0  0  0  0  0
    0.9108   -7.3498   -5.5393 C   0  0  0  0  0  0  0  0  0  0  0  0
    2.2801   -5.4248   -2.6127 N   0  0  0  0  0  0  0  0  0  0  0  0
    1.8419   -4.1370   -2.3117 C   0  0  0  0  0  0  0  0  0  0  0  0
    2.3612   -3.1607   -1.4605 C   0  0  0  0  0  0  0  0  0  0  0  0
    2.6302    1.0494    0.7635 C   0  0  0  0  0  0  0  0  0  0  0  0
    2.2382    2.3305    1.0922 C   0  0  0  0  0  0  0  0  0  0  0  0
    2.9362    3.1679    2.0021 C   0  0  0  0  0  0  0  0  0  0  0  0
    4.0797    2.6462    2.5817 C   0  0  0  0  0  0  0  0  0  0  0  0
    4.4641    1.3783    2.2521 N   0  0  0  0  0  0  0  0  0  0  0  0
    5.3044    0.9885    2.6735 H   0  0  0  0  0  0  0  0  0  0  0  0
    3.8288    0.4976    1.3710 C   0  0  0  0  0  0  0  0  0  0  0  0
    4.3228   -0.6212    1.1929 O   0  0  0  0  0  0  0  0  0  0  0  0
    4.9523    3.3868    3.5636 C   0  0  0  0  0  0  0  0  0  0  0  0
    5.5645    4.6960    3.0261 C   0  0  0  0  0  0  0  0  0  0  0  0
    4.5905    5.8764    2.9295 C   0  0  0  0  0  0  0  0  0  0  0  0
    3.4134    5.7074    1.9611 C   0  0  0  0  0  0  0  0  0  0  0  0
    2.4398    4.5657    2.3085 C   0  0  0  0  0  0  0  0  0  0  0  0
    3.0866   -1.2283   -0.0000 H   0  0  0  0  0  0  0  0  0  0  0  0
    0.0033   -0.7395   -2.0163 H   0  0  0  0  0  0  0  0  0  0  0  0
   -0.9283   -2.5013   -3.5484 H   0  0  0  0  0  0  0  0  0  0  0  0
    2.2440   -7.8113   -3.7906 H   0  0  0  0  0  0  0  0  0  0  0  0
   -0.8303   -7.3613   -4.1487 H   0  0  0  0  0  0  0  0  0  0  0  0
    0.0523   -8.9745   -4.2579 H   0  0  0  0  0  0  0  0  0  0  0  0
    0.5568   -6.4468   -6.0431 H   0  0  0  0  0  0  0  0  0  0  0  0
    1.4587   -8.0474   -6.1786 H   0  0  0  0  0  0  0  0  0  0  0  0
    3.2707   -3.3497   -0.8865 H   0  0  0  0  0  0  0  0  0  0  0  0
    1.3282    2.6943    0.6060 H   0  0  0  0  0  0  0  0  0  0  0  0
    5.7621    2.7158    3.8928 H   0  0  0  0  0  0  0  0  0  0  0  0
    4.3580    3.6120    4.4681 H   0  0  0  0  0  0  0  0  0  0  0  0
    6.0266    4.5022    2.0422 H   0  0  0  0  0  0  0  0  0  0  0  0
    6.3881    4.9812    3.7019 H   0  0  0  0  0  0  0  0  0  0  0  0
    5.1623    6.7739    2.6383 H   0  0  0  0  0  0  0  0  0  0  0  0
    4.1927    6.0887    3.9397 H   0  0  0  0  0  0  0  0  0  0  0  0
    3.7892    5.5626    0.9328 H   0  0  0  0  0  0  0  0  0  0  0  0
    2.8449    6.6528    1.9497 H   0  0  0  0  0  0  0  0  0  0  0  0
    1.5028    4.7164    1.7512 H   0  0  0  0  0  0  0  0  0  0  0  0
    2.1659    4.6449    3.3779 H   0  0  0  0  0  0  0  0  0  0  0  0
  1  2  2  0
  2  3  1  0
  2 16  1  0
  3  4  1  0
  3 29  1  0
  4  5  2  0
  4 15  1  0
  5  6  1  0
  5 30  1  0
  6  7  2  0
  6 31  1  0
  7  8  1  0
  7 14  1  0
  8  9  1  0
  9 10  1  0
  9 13  2  0
 10 11  1  0
 10 12  1  0
 10 32  1  6
 11 12  1  0
 11 33  1  0
 11 34  1  0
 12 35  1  0
 12 36  1  0
 13 14  1  0
 14 15  2  0
 15 37  1  0
 16 17  2  0
 16 22  1  0
 17 18  1  0
 17 38  1  0
 18 19  2  0
 18 28  1  0
 19 20  1  0
 19 24  1  0
 20 21  1  0
 20 22  1  0
 22 23  2  0
 24 25  1  0
 24 39  1  0
 24 40  1  0
 25 26  1  0
 25 41  1  0
 25 42  1  0
 26 27  1  0
 26 43  1  0
 26 44  1  0
 27 28  1  0
 27 45  1  0
 27 46  1  0
 28 47  1  0
 28 48  1  0
M  END

