
     RDKit          3D

 55 58  0  0  0  0  0  0  0  0999 V2000
   13.3382   -1.4976   -0.9095 C   0  0  0  0  0  0  0  0  0  0  0  0
   11.9750   -1.3805   -1.3148 O   0  0  0  0  0  0  0  0  0  0  0  0
   11.4608   -0.1353   -1.3171 C   0  0  0  0  0  0  0  0  0  0  0  0
   12.0967    0.8423   -1.0000 O   0  0  0  0  0  0  0  0  0  0  0  0
   10.0304   -0.1091   -1.7540 C   0  0  0  0  0  0  0  0  0  0  0  0
    9.3404   -1.2714   -2.1353 C   0  0  0  0  0  0  0  0  0  0  0  0
    8.0042   -1.1869   -2.5287 C   0  0  0  0  0  0  0  0  0  0  0  0
    7.3581    0.0523   -2.5623 C   0  0  0  0  0  0  0  0  0  0  0  0
    8.0416    1.2216   -2.1903 C   0  0  0  0  0  0  0  0  0  0  0  0
    7.3615    2.5648   -2.0942 C   0  0  0  0  0  0  0  0  0  0  0  0
    7.5391    3.2695   -1.1121 O   0  0  0  0  0  0  0  0  0  0  0  0
    6.5075    2.9398   -3.1128 N   0  0  0  0  0  0  0  0  0  0  0  0
    5.7674    4.1871   -2.9622 C   0  0  0  0  0  0  0  0  0  0  0  0
    6.4674    5.3285   -3.7033 C   0  0  0  0  0  0  0  0  0  0  0  0
    6.8480    4.9349   -5.1184 C   0  0  0  0  0  0  0  0  0  0  0  0
    6.8892    3.5744   -5.4723 C   0  0  0  0  0  0  0  0  0  0  0  0
    7.2327    3.2513   -6.7890 C   0  0  0  0  0  0  0  0  0  0  0  0
    7.5201    4.1479   -7.7269 N   0  0  0  0  0  0  0  0  0  0  0  0
    7.4989    5.4482   -7.4047 C   0  0  0  0  0  0  0  0  0  0  0  0
    7.8421    6.4166   -8.5108 C   0  0  0  0  0  0  0  0  0  0  0  0
    7.1809    5.8917   -6.1007 C   0  0  0  0  0  0  0  0  0  0  0  0
    7.1791    7.3705   -5.7787 C   0  0  0  0  0  0  0  0  0  0  0  0
    5.9162    7.9956   -6.1612 N   0  0  0  0  0  0  0  0  0  0  0  0
    5.7802    9.3584   -6.1729 C   0  0  0  0  0  0  0  0  0  0  0  0
    6.7110   10.0989   -5.8911 O   0  0  0  0  0  0  0  0  0  0  0  0
    4.4301    9.8827   -6.5508 C   0  0  0  0  0  0  0  0  0  0  0  0
    3.3221    9.1588   -7.1094 C   0  0  0  0  0  0  0  0  0  0  0  0
    2.2309    9.9548   -7.3390 C   0  0  0  0  0  0  0  0  0  0  0  0
    2.5369   11.5973   -6.8810 S   0  0  0  0  0  0  0  0  0  0  0  0
    4.1377   11.2184   -6.3815 C   0  0  0  0  0  0  0  0  0  0  0  0
    6.5645    2.4623   -4.4861 C   0  0  0  0  0  0  0  0  0  0  0  0
    9.3729    1.1273   -1.7671 C   0  0  0  0  0  0  0  0  0  0  0  0
   13.5851   -2.5647   -0.9701 H   0  0  0  0  0  0  0  0  0  0  0  0
   13.4728   -1.1319    0.1198 H   0  0  0  0  0  0  0  0  0  0  0  0
   13.9952   -0.9146   -1.5727 H   0  0  0  0  0  0  0  0  0  0  0  0
    9.8552   -2.2325   -2.1133 H   0  0  0  0  0  0  0  0  0  0  0  0
    7.4593   -2.0920   -2.8076 H   0  0  0  0  0  0  0  0  0  0  0  0
    6.3074    0.1066   -2.8573 H   0  0  0  0  0  0  0  0  0  0  0  0
    5.6883    4.4133   -1.8929 H   0  0  0  0  0  0  0  0  0  0  0  0
    4.7512    4.0342   -3.3679 H   0  0  0  0  0  0  0  0  0  0  0  0
    7.3743    5.6106   -3.1397 H   0  0  0  0  0  0  0  0  0  0  0  0
    5.8178    6.2179   -3.7084 H   0  0  0  0  0  0  0  0  0  0  0  0
    7.2766    2.1969   -7.0951 H   0  0  0  0  0  0  0  0  0  0  0  0
    7.9397    5.8614   -9.4522 H   0  0  0  0  0  0  0  0  0  0  0  0
    8.7970    6.9323   -8.3119 H   0  0  0  0  0  0  0  0  0  0  0  0
    7.0737    7.1967   -8.6258 H   0  0  0  0  0  0  0  0  0  0  0  0
    7.9858    7.8934   -6.3122 H   0  0  0  0  0  0  0  0  0  0  0  0
    7.3796    7.5416   -4.7084 H   0  0  0  0  0  0  0  0  0  0  0  0
    5.1028    7.4036   -6.2696 H   0  0  0  0  0  0  0  0  0  0  0  0
    3.3324    8.0960   -7.3583 H   0  0  0  0  0  0  0  0  0  0  0  0
    1.2679    9.6713   -7.7614 H   0  0  0  0  0  0  0  0  0  0  0  0
    4.8121   11.9749   -5.9838 H   0  0  0  0  0  0  0  0  0  0  0  0
    7.3226    1.6737   -4.5723 H   0  0  0  0  0  0  0  0  0  0  0  0
    5.5958    2.0007   -4.7639 H   0  0  0  0  0  0  0  0  0  0  0  0
    9.9085    2.0193   -1.4386 H   0  0  0  0  0  0  0  0  0  0  0  0
  1  2  1  0
  1 33  1  0
  1 34  1  0
  1 35  1  0
  2  3  1  0
  3  4  2  0
  3  5  1  0
  5  6  2  0
  5 32  1  0
  6  7  1  0
  6 36  1  0
  7  8  2  0
  7 37  1  0
  8  9  1  0
  8 38  1  0
  9 10  1  0
  9 32  2  0
 10 11  2  0
 10 12  1  0
 12 13  1  0
 12 31  1  0
 13 14  1  0
 13 39  1  0
 13 40  1  0
 14 15  1  0
 14 41  1  0
 14 42  1  0
 15 16  2  0
 15 21  1  0
 16 17  1  0
 16 31  1  0
 17 18  2  0
 17 43  1  0
 18 19  1  0
 19 20  1  0
 19 21  2  0
 20 44  1  0
 20 45  1  0
 20 46  1  0
 21 22  1  0
 22 23  1  0
 22 47  1  0
 22 48  1  0
 23 24  1  0
 23 49  1  0
 24 25  2  0
 24 26  1  0
 26 27  1  0
 26 30  2  0
 27 28  2  0
 27 50  1  0
 28 29  1  0
 28 51  1  0
 29 30  1  0
 30 52  1  0
 31 53  1  0
 31 54  1  0
 32 55  1  0
M  END

