
     RDKit          3D

 46 48  0  0  0  0  0  0  0  0999 V2000
    3.4105   -2.7116    0.2094 C   0  0  0  0  0  0  0  0  0  0  0  0
    3.9699   -1.3353    0.2488 C   0  0  0  0  0  0  0  0  0  0  0  0
    5.1951   -0.9460    0.1034 N   0  0  0  0  0  0  0  0  0  0  0  0
    5.1581    0.4388    0.2303 C   0  0  0  0  0  0  0  0  0  0  0  0
    6.3757    1.2836    0.1260 C   0  0  0  0  0  0  0  0  0  0  0  0
    6.3455    2.5007    0.2369 O   0  0  0  0  0  0  0  0  0  0  0  0
    7.5067    0.5349   -0.1052 N   0  0  0  0  0  0  0  0  0  0  0  0
    8.8268    0.9612   -0.2614 C   0  0  0  0  0  0  0  0  0  0  0  0
    9.2292    2.3063   -0.2045 C   0  0  0  0  0  0  0  0  0  0  0  0
   10.5869    2.5818   -0.3785 C   0  0  0  0  0  0  0  0  0  0  0  0
   11.5255    1.6597   -0.5932 N   0  0  0  0  0  0  0  0  0  0  0  0
   11.1407    0.3761   -0.6493 C   0  0  0  0  0  0  0  0  0  0  0  0
   12.2605   -0.6451   -0.8928 C   0  0  2  0  0  0  0  0  0  0  0  0
   13.2228   -0.6002    0.3174 C   0  0  0  0  0  0  0  0  0  0  0  0
   13.0034   -0.2664   -2.1906 C   0  0  0  0  0  0  0  0  0  0  0  0
   13.9779   -1.3364   -2.6262 C   0  0  0  0  0  0  0  0  0  0  0  0
   15.0262   -1.1092   -3.1936 O   0  0  0  0  0  0  0  0  0  0  0  0
   13.5456   -2.6459   -2.3760 N   0  0  0  0  0  0  0  0  0  0  0  0
   14.3404   -3.7490   -2.9003 C   0  0  0  0  0  0  0  0  0  0  0  0
   12.3349   -2.8676   -1.6800 C   0  0  0  0  0  0  0  0  0  0  0  0
   11.8182   -4.1451   -1.8052 N   0  0  0  0  0  0  0  0  0  0  0  0
   11.6993   -1.9840   -1.0091 N   0  0  0  0  0  0  0  0  0  0  0  0
    9.8121   -0.0165   -0.4900 C   0  0  0  0  0  0  0  0  0  0  0  0
    3.8657    0.8358    0.4543 C   0  0  0  0  0  0  0  0  0  0  0  0
    3.1969    2.1414    0.6664 C   0  0  0  0  0  0  0  0  0  0  0  0
    3.1085   -0.3015    0.4655 O   0  0  0  0  0  0  0  0  0  0  0  0
    4.2246   -3.4248    0.0315 H   0  0  0  0  0  0  0  0  0  0  0  0
    2.6622   -2.8106   -0.5935 H   0  0  0  0  0  0  0  0  0  0  0  0
    2.9117   -2.9623    1.1594 H   0  0  0  0  0  0  0  0  0  0  0  0
    7.3372   -0.4668   -0.1679 H   0  0  0  0  0  0  0  0  0  0  0  0
    8.5034    3.0968   -0.0314 H   0  0  0  0  0  0  0  0  0  0  0  0
   10.9283    3.6234   -0.3394 H   0  0  0  0  0  0  0  0  0  0  0  0
   13.5756    0.4280    0.4805 H   0  0  0  0  0  0  0  0  0  0  0  0
   14.0933   -1.2561    0.1550 H   0  0  0  0  0  0  0  0  0  0  0  0
   12.6976   -0.9439    1.2210 H   0  0  0  0  0  0  0  0  0  0  0  0
   13.5391    0.6857   -2.0993 H   0  0  0  0  0  0  0  0  0  0  0  0
   12.2675   -0.1529   -3.0073 H   0  0  0  0  0  0  0  0  0  0  0  0
   15.2309   -3.3122   -3.3672 H   0  0  0  0  0  0  0  0  0  0  0  0
   13.7821   -4.3205   -3.6597 H   0  0  0  0  0  0  0  0  0  0  0  0
   14.6633   -4.4301   -2.0951 H   0  0  0  0  0  0  0  0  0  0  0  0
   12.4598   -4.9182   -1.9252 H   0  0  0  0  0  0  0  0  0  0  0  0
   11.0648   -4.3241   -1.1505 H   0  0  0  0  0  0  0  0  0  0  0  0
    9.5665   -1.0774   -0.5453 H   0  0  0  0  0  0  0  0  0  0  0  0
    3.9537    2.9343    0.6280 H   0  0  0  0  0  0  0  0  0  0  0  0
    2.6871    2.1688    1.6438 H   0  0  0  0  0  0  0  0  0  0  0  0
    2.4353    2.3249   -0.1097 H   0  0  0  0  0  0  0  0  0  0  0  0
  1  2  1  0
  1 27  1  0
  1 28  1  0
  1 29  1  0
  2  3  2  0
  2 26  1  0
  3  4  1  0
  4  5  1  0
  4 24  2  0
  5  6  2  0
  5  7  1  0
  7  8  1  0
  7 30  1  0
  8  9  2  0
  8 23  1  0
  9 10  1  0
  9 31  1  0
 10 11  2  0
 10 32  1  0
 11 12  1  0
 12 13  1  0
 12 23  2  0
 13 14  1  1
 13 15  1  0
 13 22  1  0
 14 33  1  0
 14 34  1  0
 14 35  1  0
 15 16  1  0
 15 36  1  0
 15 37  1  0
 16 17  2  0
 16 18  1  0
 18 19  1  0
 18 20  1  0
 19 38  1  0
 19 39  1  0
 19 40  1  0
 20 21  1  0
 20 22  2  0
 21 41  1  0
 21 42  1  0
 23 43  1  0
 24 25  1  0
 24 26  1  0
 25 44  1  0
 25 45  1  0
 25 46  1  0
M  END

