
     RDKit          3D

 59 61  0  0  0  0  0  0  0  0999 V2000
    1.5377   -0.1240    0.4522 C   0  0  0  0  0  0  0  0  0  0  0  0
    2.9094   -0.2321   -0.2056 C   0  0  1  0  0  0  0  0  0  0  0  0
    2.8422   -0.3058   -1.6020 O   0  0  0  0  0  0  0  0  0  0  0  0
    2.0471   -1.3294   -2.6877 Si  0  0  1  0  0  4  0  0  0  0  0  0
    2.0882   -3.1113   -2.0583 C   0  0  0  0  0  0  0  0  0  0  0  0
    0.2512   -0.7824   -2.8928 C   0  0  0  0  0  0  0  0  0  0  0  0
    3.0297   -1.1187   -4.3196 C   0  0  1  0  0  0  0  0  0  0  0  0
    4.4984   -1.5325   -4.0957 C   0  0  0  0  0  0  0  0  0  0  0  0
    2.4129   -1.9996   -5.4257 C   0  0  0  0  0  0  0  0  0  0  0  0
    2.9841    0.3606   -4.7561 C   0  0  0  0  0  0  0  0  0  0  0  0
    3.9092    0.8542    0.2815 C   0  0  0  0  0  0  0  0  0  0  0  0
    4.5195   -0.1544    1.1571 N   0  0  0  0  0  0  0  0  0  0  0  0
    5.7976   -0.1736    1.6810 C   0  0  0  0  0  0  0  0  0  0  0  0
    6.4941   -1.3737    1.9306 C   0  0  0  0  0  0  0  0  0  0  0  0
    7.7674   -1.3976    2.4984 C   0  0  0  0  0  0  0  0  0  0  0  0
    8.4193   -0.1982    2.8339 C   0  0  0  0  0  0  0  0  0  0  0  0
    9.7080   -0.1691    3.4199 N   0  0  0  0  0  0  0  0  0  0  0  0
   10.3300    1.0622    3.8811 C   0  0  0  0  0  0  0  0  0  0  0  0
   11.6072    0.5394    4.5567 C   0  0  2  0  0  0  0  0  0  0  0  0
   11.4744    0.4577    5.6506 H   0  0  0  0  0  0  0  0  0  0  0  0
   12.8682    1.3369    4.2483 C   0  0  0  0  0  0  0  0  0  0  0  0
   13.1092    1.4260    2.8677 O   0  0  0  0  0  0  0  0  0  0  0  0
   11.7676   -0.7838    4.0257 O   0  0  0  0  0  0  0  0  0  0  0  0
   10.6084   -1.2196    3.4408 C   0  0  0  0  0  0  0  0  0  0  0  0
   10.4737   -2.3427    3.0359 O   0  0  0  0  0  0  0  0  0  0  0  0
    7.7469    1.0135    2.5902 C   0  0  0  0  0  0  0  0  0  0  0  0
    6.4745    1.0073    2.0387 C   0  0  0  0  0  0  0  0  0  0  0  0
    5.8600    2.1944    1.8409 F   0  0  0  0  0  0  0  0  0  0  0  0
    3.8544   -1.2678    0.4882 C   0  0  0  0  0  0  0  0  0  0  0  0
    0.9878    0.7407    0.0488 H   0  0  0  0  0  0  0  0  0  0  0  0
    1.6444    0.0051    1.5400 H   0  0  0  0  0  0  0  0  0  0  0  0
    0.9376   -1.0315    0.2771 H   0  0  0  0  0  0  0  0  0  0  0  0
    1.5609   -3.2058   -1.0946 H   0  0  0  0  0  0  0  0  0  0  0  0
    3.1172   -3.4772   -1.9154 H   0  0  0  0  0  0  0  0  0  0  0  0
    1.5873   -3.7887   -2.7697 H   0  0  0  0  0  0  0  0  0  0  0  0
   -0.3221   -0.9357   -1.9645 H   0  0  0  0  0  0  0  0  0  0  0  0
   -0.2514   -1.3559   -3.6891 H   0  0  0  0  0  0  0  0  0  0  0  0
    0.1858    0.2861   -3.1534 H   0  0  0  0  0  0  0  0  0  0  0  0
    4.5924   -2.5950   -3.8163 H   0  0  0  0  0  0  0  0  0  0  0  0
    4.9712   -0.9324   -3.3026 H   0  0  0  0  0  0  0  0  0  0  0  0
    5.0852   -1.3867   -5.0208 H   0  0  0  0  0  0  0  0  0  0  0  0
    2.4384   -3.0714   -5.1673 H   0  0  0  0  0  0  0  0  0  0  0  0
    2.9748   -1.8806   -6.3698 H   0  0  0  0  0  0  0  0  0  0  0  0
    1.3648   -1.7308   -5.6375 H   0  0  0  0  0  0  0  0  0  0  0  0
    3.3982    1.0240   -3.9807 H   0  0  0  0  0  0  0  0  0  0  0  0
    1.9569    0.6970   -4.9732 H   0  0  0  0  0  0  0  0  0  0  0  0
    3.5770    0.5084   -5.6771 H   0  0  0  0  0  0  0  0  0  0  0  0
    3.4902    1.7333    0.7958 H   0  0  0  0  0  0  0  0  0  0  0  0
    4.5667    1.1878   -0.5411 H   0  0  0  0  0  0  0  0  0  0  0  0
    6.0166   -2.3224    1.6777 H   0  0  0  0  0  0  0  0  0  0  0  0
    8.2692   -2.3476    2.6654 H   0  0  0  0  0  0  0  0  0  0  0  0
    9.6815    1.6033    4.5871 H   0  0  0  0  0  0  0  0  0  0  0  0
   10.5747    1.7291    3.0356 H   0  0  0  0  0  0  0  0  0  0  0  0
   13.7166    0.8787    4.7935 H   0  0  0  0  0  0  0  0  0  0  0  0
   12.7480    2.3639    4.6320 H   0  0  0  0  0  0  0  0  0  0  0  0
   13.2133    0.5212    2.5380 H   0  0  0  0  0  0  0  0  0  0  0  0
    8.1849    1.9849    2.8171 H   0  0  0  0  0  0  0  0  0  0  0  0
    3.3893   -2.0117    1.1596 H   0  0  0  0  0  0  0  0  0  0  0  0
    4.4962   -1.7921   -0.2457 H   0  0  0  0  0  0  0  0  0  0  0  0
  1  2  1  0
  1 30  1  0
  1 31  1  0
  1 32  1  0
  2  3  1  6
  2 11  1  0
  2 29  1  0
  4  3  1  1
  4  5  1  0
  4  6  1  0
  4  7  1  0
  5 33  1  0
  5 34  1  0
  5 35  1  0
  6 36  1  0
  6 37  1  0
  6 38  1  0
  7  8  1  1
  7  9  1  0
  7 10  1  0
  8 39  1  0
  8 40  1  0
  8 41  1  0
  9 42  1  0
  9 43  1  0
  9 44  1  0
 10 45  1  0
 10 46  1  0
 10 47  1  0
 11 12  1  0
 11 48  1  0
 11 49  1  0
 12 13  1  0
 12 29  1  0
 13 14  2  0
 13 27  1  0
 14 15  1  0
 14 50  1  0
 15 16  2  0
 15 51  1  0
 16 17  1  0
 16 26  1  0
 17 18  1  0
 17 24  1  0
 18 19  1  0
 18 52  1  0
 18 53  1  0
 19 20  1  1
 19 21  1  0
 19 23  1  0
 21 22  1  0
 21 54  1  0
 21 55  1  0
 22 56  1  0
 23 24  1  0
 24 25  2  0
 26 27  2  0
 26 57  1  0
 27 28  1  0
 29 58  1  0
 29 59  1  0
M  END

