
     RDKit          3D

 37 38  0  0  0  0  0  0  0  0999 V2000
    1.1016   -0.2867    0.3709 N   0  0  0  0  0  0  0  0  0  0  0  0
    2.5320   -0.1331    0.0943 C   0  0  1  0  0  0  0  0  0  0  0  0
    3.2345   -1.4055   -0.4351 C   0  0  0  0  0  0  0  0  0  0  0  0
    2.7718   -1.7788   -1.8486 C   0  0  0  0  0  0  0  0  0  0  0  0
    2.9883   -0.6274   -2.8668 C   0  0  2  0  0  0  0  0  0  0  0  0
    4.4753   -0.4731   -3.2121 C   0  0  0  0  0  0  0  0  0  0  0  0
    5.1709    0.3976   -2.7209 O   0  0  0  0  0  0  0  0  0  0  0  0
    5.0303   -1.3882   -4.1149 N   0  0  0  0  0  0  0  0  0  0  0  0
    4.2532   -2.3070   -4.9330 C   0  0  0  0  0  0  0  0  0  0  0  0
    3.7111   -1.7454   -6.2600 C   0  0  0  0  0  0  0  0  0  0  0  0
    3.1192   -2.4362   -7.0411 O   0  0  0  0  0  0  0  0  0  0  0  0
    3.9297   -0.4378   -6.4851 O   0  0  0  0  0  0  0  0  0  0  0  0
    6.4525   -1.2982   -4.3843 C   0  0  1  0  0  0  0  0  0  0  0  0
    7.4400   -1.4730   -3.2695 C   0  0  0  0  0  0  0  0  0  0  0  0
    7.3001   -2.5468   -4.3145 C   0  0  0  0  0  0  0  0  0  0  0  0
    2.3806    0.6887   -2.3317 C   0  0  0  0  0  0  0  0  0  0  0  0
    2.7711    1.0280   -0.8839 C   0  0  0  0  0  0  0  0  0  0  0  0
    0.9385   -1.0693    1.0052 H   0  0  0  0  0  0  0  0  0  0  0  0
    0.5747   -0.4913   -0.4778 H   0  0  0  0  0  0  0  0  0  0  0  0
    3.0052    0.1343    1.0552 H   0  0  0  0  0  0  0  0  0  0  0  0
    3.0433   -2.2493    0.2510 H   0  0  0  0  0  0  0  0  0  0  0  0
    4.3261   -1.2399   -0.4306 H   0  0  0  0  0  0  0  0  0  0  0  0
    1.6934   -2.0146   -1.8272 H   0  0  0  0  0  0  0  0  0  0  0  0
    3.2773   -2.6996   -2.1826 H   0  0  0  0  0  0  0  0  0  0  0  0
    2.4481   -0.8825   -3.7917 H   0  0  0  0  0  0  0  0  0  0  0  0
    3.3922   -2.7157   -4.3881 H   0  0  0  0  0  0  0  0  0  0  0  0
    4.8756   -3.1732   -5.1985 H   0  0  0  0  0  0  0  0  0  0  0  0
    4.4311   -0.0602   -5.7445 H   0  0  0  0  0  0  0  0  0  0  0  0
    6.7293   -0.5698   -5.1585 H   0  0  0  0  0  0  0  0  0  0  0  0
    7.0370   -1.6764   -2.2752 H   0  0  0  0  0  0  0  0  0  0  0  0
    8.3232   -0.8296   -3.2732 H   0  0  0  0  0  0  0  0  0  0  0  0
    6.8139   -3.4795   -4.0134 H   0  0  0  0  0  0  0  0  0  0  0  0
    8.0836   -2.6714   -5.0670 H   0  0  0  0  0  0  0  0  0  0  0  0
    1.2827    0.5975   -2.4107 H   0  0  0  0  0  0  0  0  0  0  0  0
    2.6619    1.5225   -2.9939 H   0  0  0  0  0  0  0  0  0  0  0  0
    2.1969    1.9040   -0.5426 H   0  0  0  0  0  0  0  0  0  0  0  0
    3.8368    1.2956   -0.8644 H   0  0  0  0  0  0  0  0  0  0  0  0
  1  2  1  0
  1 18  1  0
  1 19  1  0
  2  3  1  0
  2 17  1  0
  2 20  1  1
  3  4  1  0
  3 21  1  0
  3 22  1  0
  4  5  1  0
  4 23  1  0
  4 24  1  0
  5  6  1  0
  5 16  1  0
  5 25  1  6
  6  7  2  0
  6  8  1  0
  8  9  1  0
  8 13  1  0
  9 10  1  0
  9 26  1  0
  9 27  1  0
 10 11  2  0
 10 12  1  0
 12 28  1  0
 13 14  1  0
 13 15  1  0
 13 29  1  6
 14 15  1  0
 14 30  1  0
 14 31  1  0
 15 32  1  0
 15 33  1  0
 16 17  1  0
 16 34  1  0
 16 35  1  0
 17 36  1  0
 17 37  1  0
M  END

