
     RDKit          3D

 91 99  0  0  0  0  0  0  0  0999 V2000
    3.6623   -0.7149    0.0527 C   0  0  0  0  0  0  0  0  0  0  0  0
    3.3652    0.7419   -0.3465 C   0  0  1  0  0  0  0  0  0  0  0  0
    4.2307    1.0910   -1.5798 C   0  0  0  0  0  0  0  0  0  0  0  0
    1.8690    0.8439   -0.7241 C   0  0  0  0  0  0  0  0  0  0  0  0
    3.6743    1.7321    0.7923 C   0  0  0  0  0  0  0  0  0  0  0  0
    4.1792    1.3332    2.0415 C   0  0  0  0  0  0  0  0  0  0  0  0
    4.4462    2.2562    3.0518 C   0  0  0  0  0  0  0  0  0  0  0  0
    4.2153    3.6317    2.8664 C   0  0  0  0  0  0  0  0  0  0  0  0
    4.5573    4.5325    3.9843 C   0  0  0  0  0  0  0  0  0  0  0  0
    5.4372    4.2023    4.9086 N   0  0  0  0  0  0  0  0  0  0  0  0
    5.4844    5.2456    5.7865 C   0  0  0  0  0  0  0  0  0  0  0  0
    6.3153    5.3555    6.9545 C   0  0  0  0  0  0  0  0  0  0  0  0
    7.2208    4.3330    7.3122 C   0  0  0  0  0  0  0  0  0  0  0  0
    8.0193    4.4636    8.4360 C   0  0  0  0  0  0  0  0  0  0  0  0
    7.9251    5.6261    9.2247 C   0  0  0  0  0  0  0  0  0  0  0  0
    7.0378    6.6362    8.8834 C   0  0  0  0  0  0  0  0  0  0  0  0
    6.2034    6.5377    7.7425 C   0  0  0  0  0  0  0  0  0  0  0  0
    5.2451    7.5867    7.3638 C   0  0  0  0  0  0  0  0  0  0  0  0
    5.0916    8.7560    8.1456 C   0  0  0  0  0  0  0  0  0  0  0  0
    4.1812    9.7497    7.8214 C   0  0  0  0  0  0  0  0  0  0  0  0
    3.3695    9.6071    6.6845 C   0  0  0  0  0  0  0  0  0  0  0  0
    3.4893    8.4800    5.8876 C   0  0  0  0  0  0  0  0  0  0  0  0
    4.4210    7.4559    6.1912 C   0  0  0  0  0  0  0  0  0  0  0  0
    4.6006    6.2566    5.4110 C   0  0  0  0  0  0  0  0  0  0  0  0
    4.0072    5.7922    4.2344 N   0  0  0  0  0  0  0  0  0  0  0  0
    2.9924    6.4490    3.4687 C   0  0  0  0  0  0  0  0  0  0  0  0
    3.3324    7.4798    2.5834 C   0  0  0  0  0  0  0  0  0  0  0  0
    2.3415    8.1185    1.8400 C   0  0  0  0  0  0  0  0  0  0  0  0
    0.9863    7.7442    1.9492 C   0  0  0  0  0  0  0  0  0  0  0  0
   -0.0659    8.4234    1.1519 C   0  0  0  0  0  0  0  0  0  0  0  0
    0.1874    8.8933   -0.1511 C   0  0  0  0  0  0  0  0  0  0  0  0
   -0.7941    9.5352   -0.9014 C   0  0  0  0  0  0  0  0  0  0  0  0
   -2.0884    9.7278   -0.3805 C   0  0  0  0  0  0  0  0  0  0  0  0
   -3.0905   10.3740   -1.1396 N   0  0  0  0  0  0  0  0  0  0  0  0
   -3.1756   10.1634   -2.5437 C   0  0  0  0  0  0  0  0  0  0  0  0
   -3.0568    8.8699   -3.0836 C   0  0  0  0  0  0  0  0  0  0  0  0
   -3.1378    8.6708   -4.4628 C   0  0  0  0  0  0  0  0  0  0  0  0
   -3.3559    9.7499   -5.3254 C   0  0  0  0  0  0  0  0  0  0  0  0
   -3.4849   11.0362   -4.7918 C   0  0  0  0  0  0  0  0  0  0  0  0
   -3.3882   11.2466   -3.4152 C   0  0  0  0  0  0  0  0  0  0  0  0
   -4.0232   11.2414   -0.5064 C   0  0  0  0  0  0  0  0  0  0  0  0
   -3.5943   12.1838    0.4458 C   0  0  0  0  0  0  0  0  0  0  0  0
   -4.5154   13.0294    1.0661 C   0  0  0  0  0  0  0  0  0  0  0  0
   -5.8734   12.9648    0.7376 C   0  0  0  0  0  0  0  0  0  0  0  0
   -6.3025   12.0363   -0.2162 C   0  0  0  0  0  0  0  0  0  0  0  0
   -5.3905   11.1753   -0.8290 C   0  0  0  0  0  0  0  0  0  0  0  0
   -2.3536    9.2569    0.9201 C   0  0  0  0  0  0  0  0  0  0  0  0
   -1.3613    8.6259    1.6655 C   0  0  0  0  0  0  0  0  0  0  0  0
    0.6682    6.7024    2.8426 C   0  0  0  0  0  0  0  0  0  0  0  0
    1.6536    6.0647    3.5962 C   0  0  0  0  0  0  0  0  0  0  0  0
    3.7211    4.0419    1.6137 C   0  0  0  0  0  0  0  0  0  0  0  0
    3.4599    3.1101    0.6101 C   0  0  0  0  0  0  0  0  0  0  0  0
    3.4258   -1.3873   -0.7870 H   0  0  0  0  0  0  0  0  0  0  0  0
    3.0567   -1.0368    0.9144 H   0  0  0  0  0  0  0  0  0  0  0  0
    4.7236   -0.8637    0.3060 H   0  0  0  0  0  0  0  0  0  0  0  0
    4.0210    0.3931   -2.4072 H   0  0  0  0  0  0  0  0  0  0  0  0
    5.3039    1.0234   -1.3408 H   0  0  0  0  0  0  0  0  0  0  0  0
    4.0331    2.1101   -1.9455 H   0  0  0  0  0  0  0  0  0  0  0  0
    1.6295    0.1438   -1.5415 H   0  0  0  0  0  0  0  0  0  0  0  0
    1.5984    1.8558   -1.0621 H   0  0  0  0  0  0  0  0  0  0  0  0
    1.2269    0.5954    0.1360 H   0  0  0  0  0  0  0  0  0  0  0  0
    4.3732    0.2802    2.2467 H   0  0  0  0  0  0  0  0  0  0  0  0
    4.8459    1.9223    4.0103 H   0  0  0  0  0  0  0  0  0  0  0  0
    7.2716    3.4471    6.6766 H   0  0  0  0  0  0  0  0  0  0  0  0
    8.7203    3.6708    8.7093 H   0  0  0  0  0  0  0  0  0  0  0  0
    8.5536    5.7372   10.1120 H   0  0  0  0  0  0  0  0  0  0  0  0
    6.9940    7.5212    9.5186 H   0  0  0  0  0  0  0  0  0  0  0  0
    5.7024    8.8869    9.0387 H   0  0  0  0  0  0  0  0  0  0  0  0
    4.0944   10.6364    8.4543 H   0  0  0  0  0  0  0  0  0  0  0  0
    2.6413   10.3797    6.4255 H   0  0  0  0  0  0  0  0  0  0  0  0
    2.8472    8.3828    5.0155 H   0  0  0  0  0  0  0  0  0  0  0  0
    4.3770    7.7851    2.4924 H   0  0  0  0  0  0  0  0  0  0  0  0
    2.6233    8.9391    1.1770 H   0  0  0  0  0  0  0  0  0  0  0  0
    1.1730    8.7441   -0.5983 H   0  0  0  0  0  0  0  0  0  0  0  0
   -0.5604    9.8884   -1.9070 H   0  0  0  0  0  0  0  0  0  0  0  0
   -2.9017    8.0211   -2.4148 H   0  0  0  0  0  0  0  0  0  0  0  0
   -3.0436    7.6585   -4.8648 H   0  0  0  0  0  0  0  0  0  0  0  0
   -3.4257    9.5897   -6.4039 H   0  0  0  0  0  0  0  0  0  0  0  0
   -3.6503   11.8900   -5.4543 H   0  0  0  0  0  0  0  0  0  0  0  0
   -3.4776   12.2546   -3.0059 H   0  0  0  0  0  0  0  0  0  0  0  0
   -2.5336   12.2498    0.6958 H   0  0  0  0  0  0  0  0  0  0  0  0
   -4.1642   13.7559    1.8037 H   0  0  0  0  0  0  0  0  0  0  0  0
   -6.5907   13.6329    1.2200 H   0  0  0  0  0  0  0  0  0  0  0  0
   -7.3616   11.9708   -0.4791 H   0  0  0  0  0  0  0  0  0  0  0  0
   -5.7333   10.4443   -1.5637 H   0  0  0  0  0  0  0  0  0  0  0  0
   -3.3470    9.3940    1.3503 H   0  0  0  0  0  0  0  0  0  0  0  0
   -1.5999    8.2939    2.6785 H   0  0  0  0  0  0  0  0  0  0  0  0
   -0.3671    6.3680    2.9353 H   0  0  0  0  0  0  0  0  0  0  0  0
    1.3908    5.2558    4.2806 H   0  0  0  0  0  0  0  0  0  0  0  0
    3.5535    5.0959    1.3999 H   0  0  0  0  0  0  0  0  0  0  0  0
    3.0828    3.4803   -0.3462 H   0  0  0  0  0  0  0  0  0  0  0  0
  2  1  1  1
  1 53  1  0
  1 54  1  0
  1 55  1  0
  2  3  1  0
  2  4  1  0
  2  5  1  0
  3 56  1  0
  3 57  1  0
  3 58  1  0
  4 59  1  0
  4 60  1  0
  4 61  1  0
  5  6  2  0
  5 52  1  0
  6  7  1  0
  6 62  1  0
  7  8  2  0
  7 63  1  0
  8  9  1  0
  8 51  1  0
  9 10  2  0
  9 25  1  0
 10 11  1  0
 11 12  2  0
 11 24  1  0
 12 13  1  0
 12 17  1  0
 13 14  2  0
 13 64  1  0
 14 15  1  0
 14 65  1  0
 15 16  2  0
 15 66  1  0
 16 17  1  0
 16 67  1  0
 17 18  2  0
 18 19  1  0
 18 23  1  0
 19 20  2  0
 19 68  1  0
 20 21  1  0
 20 69  1  0
 21 22  2  0
 21 70  1  0
 22 23  1  0
 22 71  1  0
 23 24  2  0
 24 25  1  0
 25 26  1  0
 26 27  2  0
 26 50  1  0
 27 28  1  0
 27 72  1  0
 28 29  2  0
 28 73  1  0
 29 30  1  0
 29 49  1  0
 30 31  2  0
 30 48  1  0
 31 32  1  0
 31 74  1  0
 32 33  2  0
 32 75  1  0
 33 34  1  0
 33 47  1  0
 34 35  1  0
 34 41  1  0
 35 36  2  0
 35 40  1  0
 36 37  1  0
 36 76  1  0
 37 38  2  0
 37 77  1  0
 38 39  1  0
 38 78  1  0
 39 40  2  0
 39 79  1  0
 40 80  1  0
 41 42  2  0
 41 46  1  0
 42 43  1  0
 42 81  1  0
 43 44  2  0
 43 82  1  0
 44 45  1  0
 44 83  1  0
 45 46  2  0
 45 84  1  0
 46 85  1  0
 47 48  2  0
 47 86  1  0
 48 87  1  0
 49 50  2  0
 49 88  1  0
 50 89  1  0
 51 52  2  0
 51 90  1  0
 52 91  1  0
M  END

