
     RDKit          3D

 24 26  0  0  0  0  0  0  0  0999 V2000
    1.0588    0.0906    0.0447 O   0  0  0  0  0  0  0  0  0  0  0  0
    2.4138    0.1629    0.0447 C   0  0  0  0  0  0  0  0  0  0  0  0
    3.1171    1.3474    0.0450 C   0  0  0  0  0  0  0  0  0  0  0  0
    4.5418    1.3357    0.0450 C   0  0  0  0  0  0  0  0  0  0  0  0
    5.2515    0.1610    0.0447 C   0  0  0  0  0  0  0  0  0  0  0  0
    4.5625   -1.0942    0.0445 C   0  0  0  0  0  0  0  0  0  0  0  0
    5.2748   -2.2293    0.0442 N   0  0  0  0  0  0  0  0  0  0  0  0
    4.6374   -3.4069    0.0440 C   0  0  0  0  0  0  0  0  0  0  0  0
    5.4122   -4.6110    0.0437 C   0  0  0  0  0  0  0  0  0  0  0  0
    4.7747   -5.8216    0.0435 C   0  0  0  0  0  0  0  0  0  0  0  0
    5.4896   -6.9550    0.0432 F   0  0  0  0  0  0  0  0  0  0  0  0
    3.3570   -5.9461    0.0434 C   0  0  0  0  0  0  0  0  0  0  0  0
    2.5877   -4.8104    0.0436 C   0  0  0  0  0  0  0  0  0  0  0  0
    3.1915   -3.5141    0.0439 C   0  0  0  0  0  0  0  0  0  0  0  0
    2.4520   -2.3250    0.0442 C   0  0  0  0  0  0  0  0  0  0  0  0
    3.1132   -1.0942    0.0444 C   0  0  0  0  0  0  0  0  0  0  0  0
    0.6870    0.9827    0.0447 H   0  0  0  0  0  0  0  0  0  0  0  0
    2.5789    2.3002    0.0452 H   0  0  0  0  0  0  0  0  0  0  0  0
    5.0713    2.2921    0.0452 H   0  0  0  0  0  0  0  0  0  0  0  0
    6.3420    0.1402    0.0447 H   0  0  0  0  0  0  0  0  0  0  0  0
    6.5003   -4.5442    0.0438 H   0  0  0  0  0  0  0  0  0  0  0  0
    2.9168   -6.9450    0.0432 H   0  0  0  0  0  0  0  0  0  0  0  0
    1.4969   -4.8840    0.0436 H   0  0  0  0  0  0  0  0  0  0  0  0
    1.3602   -2.3526    0.0441 H   0  0  0  0  0  0  0  0  0  0  0  0
  1  2  1  0
  1 17  1  0
  2  3  2  0
  2 16  1  0
  3  4  1  0
  3 18  1  0
  4  5  2  0
  4 19  1  0
  5  6  1  0
  5 20  1  0
  6  7  1  0
  6 16  2  0
  7  8  2  0
  8  9  1  0
  8 14  1  0
  9 10  2  0
  9 21  1  0
 10 11  1  0
 10 12  1  0
 12 13  2  0
 12 22  1  0
 13 14  1  0
 13 23  1  0
 14 15  2  0
 15 16  1  0
 15 24  1  0
M  END

