
     RDKit          3D

 27 28  0  0  0  0  0  0  0  0999 V2000
    4.2485   -1.5007    2.2207 C   0  0  0  0  0  0  0  0  0  0  0  0
    3.9943   -0.6068    1.1713 O   0  0  0  0  0  0  0  0  0  0  0  0
    4.6511    0.6266    1.3030 C   0  0  0  0  0  0  0  0  0  0  0  0
    4.2843    1.4906    0.0975 C   0  0  0  0  0  0  0  0  0  0  0  0
    4.9849    2.8096    0.1050 C   0  0  0  0  0  0  0  0  0  0  0  0
    4.3373    3.9490    0.1370 N   0  0  0  0  0  0  0  0  0  0  0  0
    5.3560    4.9026    0.1367 O   0  0  0  0  0  0  0  0  0  0  0  0
    6.5195    4.2350    0.1039 C   0  0  0  0  0  0  0  0  0  0  0  0
    7.7626    4.9881    0.0924 C   0  0  0  0  0  0  0  0  0  0  0  0
    7.8022    6.4248    0.1185 C   0  0  0  0  0  0  0  0  0  0  0  0
    8.9886    7.0980    0.1072 C   0  0  0  0  0  0  0  0  0  0  0  0
   10.2705    6.4051    0.0690 C   0  0  0  0  0  0  0  0  0  0  0  0
   11.3806    6.9033    0.0555 O   0  0  0  0  0  0  0  0  0  0  0  0
   10.1309    4.9904    0.0437 N   0  0  0  0  0  0  0  0  0  0  0  0
   11.0140    4.4859    0.0148 H   0  0  0  0  0  0  0  0  0  0  0  0
    8.9628    4.3130    0.0547 C   0  0  0  0  0  0  0  0  0  0  0  0
    6.3537    2.9394    0.0875 N   0  0  0  0  0  0  0  0  0  0  0  0
    3.6937   -2.4277    2.0150 H   0  0  0  0  0  0  0  0  0  0  0  0
    3.9142   -1.1005    3.1999 H   0  0  0  0  0  0  0  0  0  0  0  0
    5.3269   -1.7469    2.3065 H   0  0  0  0  0  0  0  0  0  0  0  0
    5.7516    0.4919    1.3465 H   0  0  0  0  0  0  0  0  0  0  0  0
    4.3514    1.1383    2.2425 H   0  0  0  0  0  0  0  0  0  0  0  0
    3.1987    1.6600    0.0741 H   0  0  0  0  0  0  0  0  0  0  0  0
    4.5598    0.9400   -0.8169 H   0  0  0  0  0  0  0  0  0  0  0  0
    6.8581    6.9735    0.1474 H   0  0  0  0  0  0  0  0  0  0  0  0
    9.0337    8.1877    0.1264 H   0  0  0  0  0  0  0  0  0  0  0  0
    9.0054    3.2222    0.0316 H   0  0  0  0  0  0  0  0  0  0  0  0
  1  2  1  0
  1 18  1  0
  1 19  1  0
  1 20  1  0
  2  3  1  0
  3  4  1  0
  3 21  1  0
  3 22  1  0
  4  5  1  0
  4 23  1  0
  4 24  1  0
  5  6  2  0
  5 17  1  0
  6  7  1  0
  7  8  1  0
  8  9  1  0
  8 17  2  0
  9 10  1  0
  9 16  2  0
 10 11  2  0
 10 25  1  0
 11 12  1  0
 11 26  1  0
 12 13  2  0
 12 14  1  0
 14 15  1  0
 14 16  1  0
 16 27  1  0
M  END

