
     RDKit          3D

 60 63  0  0  0  0  0  0  0  0999 V2000
    4.6430    4.9640    8.9644 C   0  0  0  0  0  0  0  0  0  0  0  0
    5.8313    5.3396    8.0607 C   0  0  1  0  0  0  0  0  0  0  0  0
    6.2501    6.7907    8.3928 C   0  0  0  0  0  0  0  0  0  0  0  0
    7.0023    4.3816    8.3802 C   0  0  0  0  0  0  0  0  0  0  0  0
    5.4795    5.2382    6.5635 C   0  0  0  0  0  0  0  0  0  0  0  0
    4.2147    4.8413    6.0979 C   0  0  0  0  0  0  0  0  0  0  0  0
    3.9275    4.7597    4.7327 C   0  0  0  0  0  0  0  0  0  0  0  0
    4.8949    5.0723    3.7680 C   0  0  0  0  0  0  0  0  0  0  0  0
    4.5845    4.9931    2.2812 C   0  0  0  0  0  0  0  0  0  0  0  0
    3.6113    6.0556    1.7982 C   0  0  0  0  0  0  0  0  0  0  0  0
    4.0663    7.3731    1.6099 C   0  0  0  0  0  0  0  0  0  0  0  0
    3.1939    8.3659    1.1841 C   0  0  0  0  0  0  0  0  0  0  0  0
    1.8572    8.0776    0.9145 C   0  0  0  0  0  0  0  0  0  0  0  0
    1.3681    6.7868    1.0799 C   0  0  0  0  0  0  0  0  0  0  0  0
    2.2523    5.7956    1.5275 C   0  0  0  0  0  0  0  0  0  0  0  0
    1.5913    4.1803    1.7454 Cl  0  0  0  0  0  0  0  0  0  0  0  0
    1.1833    9.3369    0.4382 C   0  0  0  0  0  0  0  0  0  0  0  0
    2.1476   10.3663    0.6799 O   0  0  0  0  0  0  0  0  0  0  0  0
    3.4574    9.8184    0.8517 C   0  0  2  0  0  0  0  0  0  0  0  0
    4.2095    9.8462   -0.3404 O   0  0  0  0  0  0  0  0  0  0  0  0
    4.4936   11.1351   -0.8921 C   0  0  2  0  0  0  0  0  0  0  0  0
    3.5521   11.6681   -1.1149 H   0  0  0  0  0  0  0  0  0  0  0  0
    5.2431   10.9208   -2.2083 C   0  0  0  0  0  0  0  0  0  0  0  0
    5.3571   12.1079   -2.9484 O   0  0  0  0  0  0  0  0  0  0  0  0
    5.2931   11.9461    0.1309 C   0  0  1  0  0  0  0  0  0  0  0  0
    6.2323   11.3974    0.3502 H   0  0  0  0  0  0  0  0  0  0  0  0
    5.5832   13.2247   -0.4072 O   0  0  0  0  0  0  0  0  0  0  0  0
    4.4956   12.0538    1.4188 C   0  0  2  0  0  0  0  0  0  0  0  0
    3.5516   12.5893    1.1914 H   0  0  0  0  0  0  0  0  0  0  0  0
    5.2659   12.7792    2.3551 O   0  0  0  0  0  0  0  0  0  0  0  0
    4.1430   10.6611    1.9474 C   0  0  1  0  0  0  0  0  0  0  0  0
    5.0795   10.1569    2.2364 H   0  0  0  0  0  0  0  0  0  0  0  0
    3.3548   10.7606    3.1120 O   0  0  0  0  0  0  0  0  0  0  0  0
    6.1606    5.4668    4.2240 C   0  0  0  0  0  0  0  0  0  0  0  0
    6.4444    5.5470    5.5885 C   0  0  0  0  0  0  0  0  0  0  0  0
    4.9369    5.0514   10.0224 H   0  0  0  0  0  0  0  0  0  0  0  0
    4.3118    3.9268    8.7986 H   0  0  0  0  0  0  0  0  0  0  0  0
    3.7794    5.6287    8.8057 H   0  0  0  0  0  0  0  0  0  0  0  0
    6.5085    6.8827    9.4608 H   0  0  0  0  0  0  0  0  0  0  0  0
    5.4322    7.4968    8.1780 H   0  0  0  0  0  0  0  0  0  0  0  0
    7.1278    7.1087    7.8096 H   0  0  0  0  0  0  0  0  0  0  0  0
    7.2710    4.4434    9.4478 H   0  0  0  0  0  0  0  0  0  0  0  0
    7.9029    4.6242    7.7958 H   0  0  0  0  0  0  0  0  0  0  0  0
    6.7302    3.3375    8.1574 H   0  0  0  0  0  0  0  0  0  0  0  0
    3.4248    4.5845    6.8042 H   0  0  0  0  0  0  0  0  0  0  0  0
    2.9307    4.4435    4.4145 H   0  0  0  0  0  0  0  0  0  0  0  0
    4.1831    3.9987    2.0398 H   0  0  0  0  0  0  0  0  0  0  0  0
    5.5234    5.1039    1.7168 H   0  0  0  0  0  0  0  0  0  0  0  0
    5.1174    7.6019    1.8043 H   0  0  0  0  0  0  0  0  0  0  0  0
    0.3275    6.5283    0.8764 H   0  0  0  0  0  0  0  0  0  0  0  0
    0.2634    9.5844    0.9935 H   0  0  0  0  0  0  0  0  0  0  0  0
    0.9310    9.2888   -0.6372 H   0  0  0  0  0  0  0  0  0  0  0  0
    6.2278   10.4569   -1.9851 H   0  0  0  0  0  0  0  0  0  0  0  0
    4.6762   10.1936   -2.8117 H   0  0  0  0  0  0  0  0  0  0  0  0
    5.6724   12.7954   -2.3396 H   0  0  0  0  0  0  0  0  0  0  0  0
    5.9478   13.7614    0.3123 H   0  0  0  0  0  0  0  0  0  0  0  0
    4.8008   12.7279    3.2034 H   0  0  0  0  0  0  0  0  0  0  0  0
    2.4530   10.9440    2.8025 H   0  0  0  0  0  0  0  0  0  0  0  0
    6.9442    5.7104    3.5001 H   0  0  0  0  0  0  0  0  0  0  0  0
    7.4470    5.8574    5.8925 H   0  0  0  0  0  0  0  0  0  0  0  0
  2  1  1  1
  1 36  1  0
  1 37  1  0
  1 38  1  0
  2  3  1  0
  2  4  1  0
  2  5  1  0
  3 39  1  0
  3 40  1  0
  3 41  1  0
  4 42  1  0
  4 43  1  0
  4 44  1  0
  5  6  2  0
  5 35  1  0
  6  7  1  0
  6 45  1  0
  7  8  2  0
  7 46  1  0
  8  9  1  0
  8 34  1  0
  9 10  1  0
  9 47  1  0
  9 48  1  0
 10 11  2  0
 10 15  1  0
 11 12  1  0
 11 49  1  0
 12 13  2  0
 12 19  1  0
 13 14  1  0
 13 17  1  0
 14 15  2  0
 14 50  1  0
 15 16  1  0
 17 18  1  0
 17 51  1  0
 17 52  1  0
 19 18  1  6
 19 20  1  0
 19 31  1  0
 20 21  1  0
 21 22  1  6
 21 23  1  0
 21 25  1  0
 23 24  1  0
 23 53  1  0
 23 54  1  0
 24 55  1  0
 25 26  1  1
 25 27  1  0
 25 28  1  0
 27 56  1  0
 28 29  1  6
 28 30  1  0
 28 31  1  0
 30 57  1  0
 31 32  1  1
 31 33  1  0
 33 58  1  0
 34 35  2  0
 34 59  1  0
 35 60  1  0
M  END

