
     RDKit          3D

 42 46  0  0  0  0  0  0  0  0999 V2000
    5.2506   -0.4515    5.3693 F   0  0  0  0  0  0  0  0  0  0  0  0
    5.7554   -0.4386    4.1294 C   0  0  0  0  0  0  0  0  0  0  0  0
    5.5145    0.6593    3.3071 C   0  0  0  0  0  0  0  0  0  0  0  0
    6.0378    0.6606    2.0127 C   0  0  0  0  0  0  0  0  0  0  0  0
    6.8074   -0.4184    1.5366 C   0  0  0  0  0  0  0  0  0  0  0  0
    7.3824   -0.3908    0.1807 C   0  0  0  0  0  0  0  0  0  0  0  0
    7.9665    0.7376   -0.3225 N   0  0  0  0  0  0  0  0  0  0  0  0
    8.1071    1.6108    0.1727 H   0  0  0  0  0  0  0  0  0  0  0  0
    8.4765    0.5858   -1.5489 N   0  0  0  0  0  0  0  0  0  0  0  0
    8.2083   -0.6738   -1.8673 C   0  0  0  0  0  0  0  0  0  0  0  0
    7.5146   -1.3560   -0.8273 C   0  0  0  0  0  0  0  0  0  0  0  0
    7.0213   -2.7454   -0.8698 C   0  0  0  0  0  0  0  0  0  0  0  0
    7.8307   -3.7839   -1.4427 C   0  0  0  0  0  0  0  0  0  0  0  0
    7.3670   -5.0743   -1.5296 C   0  0  0  0  0  0  0  0  0  0  0  0
    6.0808   -5.3963   -1.0347 C   0  0  0  0  0  0  0  0  0  0  0  0
    5.4201   -6.5486   -1.0284 N   0  0  0  0  0  0  0  0  0  0  0  0
    4.2289   -6.2760   -0.4486 C   0  0  0  0  0  0  0  0  0  0  0  0
    4.1099   -4.9400   -0.0643 C   0  0  0  0  0  0  0  0  0  0  0  0
    3.0015   -4.2447    0.6020 C   0  0  0  0  0  0  0  0  0  0  0  0
    3.2026   -3.3330    1.6594 C   0  0  0  0  0  0  0  0  0  0  0  0
    2.1258   -2.7196    2.3012 C   0  0  0  0  0  0  0  0  0  0  0  0
    0.8298   -3.0290    1.8953 C   0  0  0  0  0  0  0  0  0  0  0  0
   -0.2079   -2.4437    2.5102 F   0  0  0  0  0  0  0  0  0  0  0  0
    0.5896   -3.9344    0.8638 C   0  0  0  0  0  0  0  0  0  0  0  0
    1.6741   -4.5299    0.2201 C   0  0  0  0  0  0  0  0  0  0  0  0
    5.3173   -4.3656   -0.4467 N   0  0  0  0  0  0  0  0  0  0  0  0
    5.7676   -3.0684   -0.3977 C   0  0  0  0  0  0  0  0  0  0  0  0
    7.0362   -1.5091    2.3987 C   0  0  0  0  0  0  0  0  0  0  0  0
    6.5106   -1.5263    3.6902 C   0  0  0  0  0  0  0  0  0  0  0  0
    4.9136    1.4900    3.6821 H   0  0  0  0  0  0  0  0  0  0  0  0
    5.8245    1.5067    1.3547 H   0  0  0  0  0  0  0  0  0  0  0  0
    8.4931   -1.0638   -2.8445 H   0  0  0  0  0  0  0  0  0  0  0  0
    8.8294   -3.5340   -1.8057 H   0  0  0  0  0  0  0  0  0  0  0  0
    7.9573   -5.8783   -1.9707 H   0  0  0  0  0  0  0  0  0  0  0  0
    3.4786   -7.0514   -0.2887 H   0  0  0  0  0  0  0  0  0  0  0  0
    4.2128   -3.1152    2.0115 H   0  0  0  0  0  0  0  0  0  0  0  0
    2.2783   -2.0166    3.1224 H   0  0  0  0  0  0  0  0  0  0  0  0
   -0.4389   -4.1512    0.5687 H   0  0  0  0  0  0  0  0  0  0  0  0
    1.4936   -5.2217   -0.6054 H   0  0  0  0  0  0  0  0  0  0  0  0
    5.0798   -2.3277    0.0062 H   0  0  0  0  0  0  0  0  0  0  0  0
    7.6447   -2.3474    2.0548 H   0  0  0  0  0  0  0  0  0  0  0  0
    6.6883   -2.3635    4.3680 H   0  0  0  0  0  0  0  0  0  0  0  0
  1  2  1  0
  2  3  2  0
  2 29  1  0
  3  4  1  0
  3 30  1  0
  4  5  2  0
  4 31  1  0
  5  6  1  0
  5 28  1  0
  6  7  1  0
  6 11  2  0
  7  8  1  0
  7  9  1  0
  9 10  2  0
 10 11  1  0
 10 32  1  0
 11 12  1  0
 12 13  1  0
 12 27  2  0
 13 14  2  0
 13 33  1  0
 14 15  1  0
 14 34  1  0
 15 16  2  0
 15 26  1  0
 16 17  1  0
 17 18  2  0
 17 35  1  0
 18 19  1  0
 18 26  1  0
 19 20  2  0
 19 25  1  0
 20 21  1  0
 20 36  1  0
 21 22  2  0
 21 37  1  0
 22 23  1  0
 22 24  1  0
 24 25  2  0
 24 38  1  0
 25 39  1  0
 26 27  1  0
 27 40  1  0
 28 29  2  0
 28 41  1  0
 29 42  1  0
M  END

