
     RDKit          3D

 43 46  0  0  0  0  0  0  0  0999 V2000
    1.7331    1.2778    0.6682 C   0  0  0  0  0  0  0  0  0  0  0  0
    1.3815    0.1860   -0.3368 C   0  0  2  0  0  0  0  0  0  0  0  0
    1.9022   -0.7413   -0.0620 H   0  0  0  0  0  0  0  0  0  0  0  0
    1.8923    0.5912   -1.6265 O   0  0  0  0  0  0  0  0  0  0  0  0
    2.3771   -0.3670   -2.4432 C   0  0  0  0  0  0  0  0  0  0  0  0
    2.4540   -1.5360   -2.1362 O   0  0  0  0  0  0  0  0  0  0  0  0
    2.8183    0.1877   -3.7572 C   0  0  0  0  0  0  0  0  0  0  0  0
    2.6074    1.5721   -4.1019 C   0  0  0  0  0  0  0  0  0  0  0  0
    3.0245    2.0870   -5.2997 C   0  0  0  0  0  0  0  0  0  0  0  0
    3.6816    1.2079   -6.2169 C   0  0  0  0  0  0  0  0  0  0  0  0
    4.1735    1.5081   -7.4099 N   0  0  0  0  0  0  0  0  0  0  0  0
    4.6964    0.3210   -7.8800 O   0  0  0  0  0  0  0  0  0  0  0  0
    4.5370   -0.6899   -7.0123 C   0  0  0  0  0  0  0  0  0  0  0  0
    5.0626   -1.9927   -7.4085 C   0  0  0  0  0  0  0  0  0  0  0  0
    5.9135   -2.0989   -8.5288 C   0  0  0  0  0  0  0  0  0  0  0  0
    6.4223   -3.3378   -8.9135 C   0  0  0  0  0  0  0  0  0  0  0  0
    6.0943   -4.4917   -8.1928 C   0  0  0  0  0  0  0  0  0  0  0  0
    5.2470   -4.3978   -7.0843 C   0  0  0  0  0  0  0  0  0  0  0  0
    4.7323   -3.1616   -6.6942 C   0  0  0  0  0  0  0  0  0  0  0  0
    3.8778   -0.1837   -5.8875 C   0  0  0  0  0  0  0  0  0  0  0  0
    3.4398   -0.6805   -4.6329 C   0  0  0  0  0  0  0  0  0  0  0  0
   -0.1005   -0.1503   -0.4282 C   0  0  0  0  0  0  0  0  0  0  0  0
   -0.5191   -1.4229   -0.0060 C   0  0  0  0  0  0  0  0  0  0  0  0
   -1.8600   -1.8090   -0.0316 C   0  0  0  0  0  0  0  0  0  0  0  0
   -2.8252   -0.9160   -0.5010 C   0  0  0  0  0  0  0  0  0  0  0  0
   -2.4412    0.3520   -0.9400 C   0  0  0  0  0  0  0  0  0  0  0  0
   -1.0945    0.7276   -0.9022 C   0  0  0  0  0  0  0  0  0  0  0  0
   -0.7067    2.3409   -1.4821 Cl  0  0  0  0  0  0  0  0  0  0  0  0
    1.2485    2.2310    0.4194 H   0  0  0  0  0  0  0  0  0  0  0  0
    2.8231    1.4302    0.6839 H   0  0  0  0  0  0  0  0  0  0  0  0
    1.4103    0.9714    1.6748 H   0  0  0  0  0  0  0  0  0  0  0  0
    2.0934    2.2055   -3.3786 H   0  0  0  0  0  0  0  0  0  0  0  0
    2.8692    3.1339   -5.5650 H   0  0  0  0  0  0  0  0  0  0  0  0
    6.1727   -1.1994   -9.0889 H   0  0  0  0  0  0  0  0  0  0  0  0
    7.0823   -3.4038   -9.7819 H   0  0  0  0  0  0  0  0  0  0  0  0
    6.4957   -5.4617   -8.4963 H   0  0  0  0  0  0  0  0  0  0  0  0
    4.9788   -5.2948   -6.5209 H   0  0  0  0  0  0  0  0  0  0  0  0
    4.0565   -3.1105   -5.8407 H   0  0  0  0  0  0  0  0  0  0  0  0
    3.5783   -1.7170   -4.3254 H   0  0  0  0  0  0  0  0  0  0  0  0
    0.2397   -2.1287    0.3414 H   0  0  0  0  0  0  0  0  0  0  0  0
   -2.1467   -2.8078    0.3051 H   0  0  0  0  0  0  0  0  0  0  0  0
   -3.8792   -1.2025   -0.5331 H   0  0  0  0  0  0  0  0  0  0  0  0
   -3.1790    1.0626   -1.3160 H   0  0  0  0  0  0  0  0  0  0  0  0
  1  2  1  0
  1 29  1  0
  1 30  1  0
  1 31  1  0
  2  3  1  1
  2  4  1  0
  2 22  1  0
  4  5  1  0
  5  6  2  0
  5  7  1  0
  7  8  1  0
  7 21  2  0
  8  9  2  0
  8 32  1  0
  9 10  1  0
  9 33  1  0
 10 11  2  0
 10 20  1  0
 11 12  1  0
 12 13  1  0
 13 14  1  0
 13 20  2  0
 14 15  2  0
 14 19  1  0
 15 16  1  0
 15 34  1  0
 16 17  2  0
 16 35  1  0
 17 18  1  0
 17 36  1  0
 18 19  2  0
 18 37  1  0
 19 38  1  0
 20 21  1  0
 21 39  1  0
 22 23  2  0
 22 27  1  0
 23 24  1  0
 23 40  1  0
 24 25  2  0
 24 41  1  0
 25 26  1  0
 25 42  1  0
 26 27  2  0
 26 43  1  0
 27 28  1  0
M  END

