
     RDKit          3D

 28 27  0  0  0  0  0  0  0  0999 V2000
    3.6253    0.6246   -1.8844 C   0  0  0  0  0  0  0  0  0  0  0  0
    4.8311    0.1354   -1.1008 C   0  0  0  0  0  0  0  0  0  0  0  0
    5.1419    1.0114    0.0011 O   0  0  0  0  0  0  0  0  0  0  0  0
    4.4885    0.8193    1.1633 C   0  0  0  0  0  0  0  0  0  0  0  0
    3.6745   -0.0539    1.3387 O   0  0  0  0  0  0  0  0  0  0  0  0
    4.9102    1.8644    2.2041 C   0  0  1  0  0  0  0  0  0  0  0  0
    4.3448    3.2320    1.7769 C   0  0  0  0  0  0  0  0  0  0  0  0
    4.3624    1.4548    3.5836 C   0  0  0  0  0  0  0  0  0  0  0  0
    6.4613    1.9384    2.2466 C   0  0  0  0  0  0  0  0  0  0  0  0
    7.0392    2.9838    2.0590 O   0  0  0  0  0  0  0  0  0  0  0  0
    7.2215    0.6617    2.5893 C   0  0  0  0  0  0  0  0  0  0  0  0
    8.7080    0.7348    2.2533 C   0  0  0  0  0  0  0  0  0  0  0  0
    3.4616   -0.0236   -2.7603 H   0  0  0  0  0  0  0  0  0  0  0  0
    3.7787    1.6543   -2.2428 H   0  0  0  0  0  0  0  0  0  0  0  0
    2.7171    0.5948   -1.2644 H   0  0  0  0  0  0  0  0  0  0  0  0
    5.7392    0.1378   -1.7206 H   0  0  0  0  0  0  0  0  0  0  0  0
    4.6625   -0.8793   -0.7105 H   0  0  0  0  0  0  0  0  0  0  0  0
    3.2458    3.1915    1.7236 H   0  0  0  0  0  0  0  0  0  0  0  0
    4.7415    3.5336    0.7988 H   0  0  0  0  0  0  0  0  0  0  0  0
    4.6354    4.0012    2.5066 H   0  0  0  0  0  0  0  0  0  0  0  0
    3.2633    1.4379    3.5596 H   0  0  0  0  0  0  0  0  0  0  0  0
    4.6846    2.1756    4.3510 H   0  0  0  0  0  0  0  0  0  0  0  0
    4.6941    0.4494    3.8789 H   0  0  0  0  0  0  0  0  0  0  0  0
    6.7370   -0.2017    2.1025 H   0  0  0  0  0  0  0  0  0  0  0  0
    7.0810    0.4936    3.6733 H   0  0  0  0  0  0  0  0  0  0  0  0
    8.8620    0.8568    1.1699 H   0  0  0  0  0  0  0  0  0  0  0  0
    9.2283   -0.1805    2.5742 H   0  0  0  0  0  0  0  0  0  0  0  0
    9.1774    1.5974    2.7476 H   0  0  0  0  0  0  0  0  0  0  0  0
  1  2  1  0
  1 13  1  0
  1 14  1  0
  1 15  1  0
  2  3  1  0
  2 16  1  0
  2 17  1  0
  3  4  1  0
  4  5  2  0
  6  4  1  6
  6  7  1  0
  6  8  1  0
  6  9  1  0
  7 18  1  0
  7 19  1  0
  7 20  1  0
  8 21  1  0
  8 22  1  0
  8 23  1  0
  9 10  2  0
  9 11  1  0
 11 12  1  0
 11 24  1  0
 11 25  1  0
 12 26  1  0
 12 27  1  0
 12 28  1  0
M  END

