
     RDKit          3D

 43 44  0  0  0  0  0  0  0  0999 V2000
    3.0275   -1.1117   -0.4397 C   0  0  0  0  0  0  0  0  0  0  0  0
    2.5075    0.0471    0.2761 N   0  0  0  0  0  0  0  0  0  0  0  0
    1.0533    0.1614    0.4469 C   0  0  0  0  0  0  0  0  0  0  0  0
    0.5073   -0.6226    1.6276 C   0  0  0  0  0  0  0  0  0  0  0  0
    0.6898   -0.1177    2.9285 C   0  0  0  0  0  0  0  0  0  0  0  0
    0.2140   -0.7960    4.0501 C   0  0  0  0  0  0  0  0  0  0  0  0
   -0.4682   -2.0067    3.8941 C   0  0  0  0  0  0  0  0  0  0  0  0
   -0.6697   -2.5312    2.6175 C   0  0  0  0  0  0  0  0  0  0  0  0
   -0.1815   -1.8410    1.5027 C   0  0  0  0  0  0  0  0  0  0  0  0
   -0.4702   -2.5596   -0.0821 Cl  0  0  0  0  0  0  0  0  0  0  0  0
    3.2999    1.0467    0.7679 C   0  0  0  0  0  0  0  0  0  0  0  0
    2.8594    1.9832    1.4216 O   0  0  0  0  0  0  0  0  0  0  0  0
    4.8134    0.9385    0.4836 C   0  0  0  0  0  0  0  0  0  0  0  0
    5.5219    2.1728    0.7158 N   0  0  0  0  0  0  0  0  0  0  0  0
    5.7971    2.7744    1.9172 C   0  0  0  0  0  0  0  0  0  0  0  0
    6.1384    3.9404    1.9824 O   0  0  0  0  0  0  0  0  0  0  0  0
    5.6577    1.9511    3.1984 C   0  0  0  0  0  0  0  0  0  0  0  0
    6.2789    0.6828    3.0639 O   0  0  0  0  0  0  0  0  0  0  0  0
    6.3133   -0.1587    4.1363 C   0  0  0  0  0  0  0  0  0  0  0  0
    5.7278    0.1231    5.3792 C   0  0  0  0  0  0  0  0  0  0  0  0
    5.8191   -0.8182    6.4127 C   0  0  0  0  0  0  0  0  0  0  0  0
    6.4833   -2.0303    6.2242 C   0  0  0  0  0  0  0  0  0  0  0  0
    7.0678   -2.3026    4.9801 C   0  0  0  0  0  0  0  0  0  0  0  0
    6.9869   -1.3773    3.9424 C   0  0  0  0  0  0  0  0  0  0  0  0
    2.2813   -1.9160   -0.4088 H   0  0  0  0  0  0  0  0  0  0  0  0
    3.9446   -1.4994    0.0259 H   0  0  0  0  0  0  0  0  0  0  0  0
    3.2402   -0.8907   -1.5021 H   0  0  0  0  0  0  0  0  0  0  0  0
    0.5688   -0.1658   -0.4831 H   0  0  0  0  0  0  0  0  0  0  0  0
    0.8364    1.2267    0.5962 H   0  0  0  0  0  0  0  0  0  0  0  0
    1.2190    0.8321    3.0375 H   0  0  0  0  0  0  0  0  0  0  0  0
    0.3709   -0.3773    5.0469 H   0  0  0  0  0  0  0  0  0  0  0  0
   -0.8485   -2.5457    4.7653 H   0  0  0  0  0  0  0  0  0  0  0  0
   -1.2018   -3.4729    2.4737 H   0  0  0  0  0  0  0  0  0  0  0  0
    4.9913    0.6305   -0.5576 H   0  0  0  0  0  0  0  0  0  0  0  0
    5.2323    0.1447    1.1202 H   0  0  0  0  0  0  0  0  0  0  0  0
    5.5285    2.8466   -0.0448 H   0  0  0  0  0  0  0  0  0  0  0  0
    4.5813    1.8446    3.4263 H   0  0  0  0  0  0  0  0  0  0  0  0
    6.1337    2.5449    3.9942 H   0  0  0  0  0  0  0  0  0  0  0  0
    5.2036    1.0626    5.5533 H   0  0  0  0  0  0  0  0  0  0  0  0
    5.3605   -0.5901    7.3786 H   0  0  0  0  0  0  0  0  0  0  0  0
    6.5496   -2.7569    7.0371 H   0  0  0  0  0  0  0  0  0  0  0  0
    7.5958   -3.2460    4.8176 H   0  0  0  0  0  0  0  0  0  0  0  0
    7.4455   -1.5707    2.9703 H   0  0  0  0  0  0  0  0  0  0  0  0
  1  2  1  0
  1 25  1  0
  1 26  1  0
  1 27  1  0
  2  3  1  0
  2 11  1  0
  3  4  1  0
  3 28  1  0
  3 29  1  0
  4  5  2  0
  4  9  1  0
  5  6  1  0
  5 30  1  0
  6  7  2  0
  6 31  1  0
  7  8  1  0
  7 32  1  0
  8  9  2  0
  8 33  1  0
  9 10  1  0
 11 12  2  0
 11 13  1  0
 13 14  1  0
 13 34  1  0
 13 35  1  0
 14 15  1  0
 14 36  1  0
 15 16  2  0
 15 17  1  0
 17 18  1  0
 17 37  1  0
 17 38  1  0
 18 19  1  0
 19 20  2  0
 19 24  1  0
 20 21  1  0
 20 39  1  0
 21 22  2  0
 21 40  1  0
 22 23  1  0
 22 41  1  0
 23 24  2  0
 23 42  1  0
 24 43  1  0
M  END

