
     RDKit          3D

 62 68  0  0  0  0  0  0  0  0999 V2000
    2.1114    0.9764   -0.5386 C   0  0  0  0  0  0  0  0  0  0  0  0
    1.7211    0.6327    0.7713 O   0  0  0  0  0  0  0  0  0  0  0  0
    2.6324    0.0852    1.6147 C   0  0  0  0  0  0  0  0  0  0  0  0
    2.1728   -0.2300    2.9056 C   0  0  0  0  0  0  0  0  0  0  0  0
    3.0345   -0.7951    3.8402 C   0  0  0  0  0  0  0  0  0  0  0  0
    4.3804   -1.0642    3.5239 C   0  0  0  0  0  0  0  0  0  0  0  0
    5.3043   -1.6723    4.5328 C   0  0  0  0  0  0  0  0  0  0  0  0
    5.3599   -3.0880    4.6757 C   0  0  0  0  0  0  0  0  0  0  0  0
    4.5629   -3.9451    3.8781 C   0  0  0  0  0  0  0  0  0  0  0  0
    4.6022   -5.3332    4.0044 C   0  0  0  0  0  0  0  0  0  0  0  0
    3.7930   -6.2015    3.1957 C   0  0  0  0  0  0  0  0  0  0  0  0
    3.8542   -7.5618    3.3449 C   0  0  0  0  0  0  0  0  0  0  0  0
    4.7304   -8.1476    4.3148 C   0  0  0  0  0  0  0  0  0  0  0  0
    5.5203   -7.3564    5.1069 C   0  0  0  0  0  0  0  0  0  0  0  0
    5.4896   -5.9265    4.9853 C   0  0  0  0  0  0  0  0  0  0  0  0
    6.2825   -5.0921    5.7742 C   0  0  0  0  0  0  0  0  0  0  0  0
    6.2520   -3.6868    5.6546 C   0  0  0  0  0  0  0  0  0  0  0  0
    7.0753   -2.8441    6.4684 C   0  0  0  0  0  0  0  0  0  0  0  0
    7.9516   -3.4248    7.4243 C   0  0  0  0  0  0  0  0  0  0  0  0
    8.7050   -3.9277    8.2457 C   0  0  0  0  0  0  0  0  0  0  0  0
    9.5839   -4.5142    9.2040 C   0  0  0  0  0  0  0  0  0  0  0  0
   10.3963   -3.7051   10.0304 C   0  0  0  0  0  0  0  0  0  0  0  0
   11.2536   -4.2828   10.9655 C   0  0  0  0  0  0  0  0  0  0  0  0
   11.3214   -5.6742   11.0987 C   0  0  0  0  0  0  0  0  0  0  0  0
   10.5224   -6.4868   10.2866 C   0  0  0  0  0  0  0  0  0  0  0  0
    9.6622   -5.9180    9.3488 C   0  0  0  0  0  0  0  0  0  0  0  0
    7.0174   -1.4306    6.3211 C   0  0  0  0  0  0  0  0  0  0  0  0
    7.8259   -0.5712    7.1186 C   0  0  0  0  0  0  0  0  0  0  0  0
    7.7666    0.8019    6.9800 C   0  0  0  0  0  0  0  0  0  0  0  0
    8.4955    1.8300    7.6867 C   0  0  0  0  0  0  0  0  0  0  0  0
    8.1858    3.0966    7.2972 C   0  0  0  0  0  0  0  0  0  0  0  0
    8.7421    4.3863    7.8119 C   0  0  0  0  0  0  0  0  0  0  0  0
    6.9601    3.1301    6.0162 S   0  0  0  0  0  0  0  0  0  0  0  0
    6.8638    1.3692    6.0068 C   0  0  0  0  0  0  0  0  0  0  0  0
    6.0669    0.5837    5.2152 C   0  0  0  0  0  0  0  0  0  0  0  0
    6.1150   -0.8448    5.3394 C   0  0  0  0  0  0  0  0  0  0  0  0
    4.8245   -0.7454    2.2338 C   0  0  0  0  0  0  0  0  0  0  0  0
    3.9697   -0.1769    1.2816 C   0  0  0  0  0  0  0  0  0  0  0  0
    1.2236    1.3969   -1.0300 H   0  0  0  0  0  0  0  0  0  0  0  0
    2.4528    0.0954   -1.1119 H   0  0  0  0  0  0  0  0  0  0  0  0
    2.9151    1.7351   -0.5438 H   0  0  0  0  0  0  0  0  0  0  0  0
    1.1297   -0.0191    3.1504 H   0  0  0  0  0  0  0  0  0  0  0  0
    2.6610   -1.0338    4.8393 H   0  0  0  0  0  0  0  0  0  0  0  0
    3.8943   -3.5035    3.1378 H   0  0  0  0  0  0  0  0  0  0  0  0
    3.1246   -5.7518    2.4564 H   0  0  0  0  0  0  0  0  0  0  0  0
    3.2327   -8.2114    2.7233 H   0  0  0  0  0  0  0  0  0  0  0  0
    4.7637   -9.2352    4.4182 H   0  0  0  0  0  0  0  0  0  0  0  0
    6.1896   -7.8026    5.8475 H   0  0  0  0  0  0  0  0  0  0  0  0
    6.9522   -5.5388    6.5111 H   0  0  0  0  0  0  0  0  0  0  0  0
   10.3445   -2.6192    9.9281 H   0  0  0  0  0  0  0  0  0  0  0  0
   11.8749   -3.6422   11.5967 H   0  0  0  0  0  0  0  0  0  0  0  0
   11.9946   -6.1237   11.8328 H   0  0  0  0  0  0  0  0  0  0  0  0
   10.5704   -7.5744   10.3854 H   0  0  0  0  0  0  0  0  0  0  0  0
    9.0396   -6.5537    8.7159 H   0  0  0  0  0  0  0  0  0  0  0  0
    8.5004   -1.0178    7.8503 H   0  0  0  0  0  0  0  0  0  0  0  0
    9.2300    1.6136    8.4649 H   0  0  0  0  0  0  0  0  0  0  0  0
    9.4901    4.1951    8.5949 H   0  0  0  0  0  0  0  0  0  0  0  0
    7.9507    5.0245    8.2404 H   0  0  0  0  0  0  0  0  0  0  0  0
    9.2258    4.9667    7.0080 H   0  0  0  0  0  0  0  0  0  0  0  0
    5.3894    1.0278    4.4862 H   0  0  0  0  0  0  0  0  0  0  0  0
    5.8641   -0.9449    1.9610 H   0  0  0  0  0  0  0  0  0  0  0  0
    4.3585    0.0543    0.2897 H   0  0  0  0  0  0  0  0  0  0  0  0
  1  2  1  0
  1 39  1  0
  1 40  1  0
  1 41  1  0
  2  3  1  0
  3  4  2  0
  3 38  1  0
  4  5  1  0
  4 42  1  0
  5  6  2  0
  5 43  1  0
  6  7  1  0
  6 37  1  0
  7  8  1  0
  7 36  2  0
  8  9  2  0
  8 17  1  0
  9 10  1  0
  9 44  1  0
 10 11  2  0
 10 15  1  0
 11 12  1  0
 11 45  1  0
 12 13  2  0
 12 46  1  0
 13 14  1  0
 13 47  1  0
 14 15  2  0
 14 48  1  0
 15 16  1  0
 16 17  2  0
 16 49  1  0
 17 18  1  0
 18 19  1  0
 18 27  2  0
 19 20  3  0
 20 21  1  0
 21 22  2  0
 21 26  1  0
 22 23  1  0
 22 50  1  0
 23 24  2  0
 23 51  1  0
 24 25  1  0
 24 52  1  0
 25 26  2  0
 25 53  1  0
 26 54  1  0
 27 28  1  0
 27 36  1  0
 28 29  2  0
 28 55  1  0
 29 30  1  0
 29 34  1  0
 30 31  2  0
 30 56  1  0
 31 32  1  0
 31 33  1  0
 32 57  1  0
 32 58  1  0
 32 59  1  0
 33 34  1  0
 34 35  2  0
 35 36  1  0
 35 60  1  0
 37 38  2  0
 37 61  1  0
 38 62  1  0
M  END

