
     RDKit          3D

 35 36  0  0  0  0  0  0  0  0999 V2000
    5.8872   -0.1448    1.3824 C   0  0  0  0  0  0  0  0  0  0  0  0
    4.8172    0.8857    1.0659 C   0  0  0  0  0  0  0  0  0  0  0  0
    5.0134    1.4679   -0.2394 O   0  0  0  0  0  0  0  0  0  0  0  0
    4.5007    0.8173   -1.2945 C   0  0  0  0  0  0  0  0  0  0  0  0
    3.8612   -0.2036   -1.2170 O   0  0  0  0  0  0  0  0  0  0  0  0
    4.8666    1.4884   -2.6302 C   0  0  1  0  0  0  0  0  0  0  0  0
    3.7595    1.2928   -3.6789 C   0  0  0  0  0  0  0  0  0  0  0  0
    2.5633    2.2159   -3.4264 C   0  0  0  0  0  0  0  0  0  0  0  0
    3.0238    3.6723   -3.3086 C   0  0  0  0  0  0  0  0  0  0  0  0
    4.1149    3.8255   -2.2461 C   0  0  0  0  0  0  0  0  0  0  0  0
    5.2206    2.8957   -2.4879 N   0  0  0  0  0  0  0  0  0  0  0  0
    6.5254    3.2823   -2.3787 C   0  0  0  0  0  0  0  0  0  0  0  0
    7.4800    2.3351   -2.5351 N   0  0  0  0  0  0  0  0  0  0  0  0
    8.7434    2.7230   -2.4555 C   0  0  0  0  0  0  0  0  0  0  0  0
    9.1231    4.0479   -2.2134 C   0  0  0  0  0  0  0  0  0  0  0  0
    8.0587    4.9469   -2.0617 C   0  0  0  0  0  0  0  0  0  0  0  0
    8.3249    6.3490   -1.8038 C   0  0  0  0  0  0  0  0  0  0  0  0
    8.5646    7.4647   -1.5982 N   0  0  0  0  0  0  0  0  0  0  0  0
    6.7804    4.5844   -2.1387 N   0  0  0  0  0  0  0  0  0  0  0  0
    5.7608   -0.5095    2.4144 H   0  0  0  0  0  0  0  0  0  0  0  0
    6.8935    0.2927    1.2918 H   0  0  0  0  0  0  0  0  0  0  0  0
    5.8129   -1.0077    0.7041 H   0  0  0  0  0  0  0  0  0  0  0  0
    4.8630    1.7378    1.7589 H   0  0  0  0  0  0  0  0  0  0  0  0
    3.8128    0.4391    1.1070 H   0  0  0  0  0  0  0  0  0  0  0  0
    5.7763    0.9627   -2.9558 H   0  0  0  0  0  0  0  0  0  0  0  0
    3.4548    0.2368   -3.6666 H   0  0  0  0  0  0  0  0  0  0  0  0
    4.1915    1.5056   -4.6710 H   0  0  0  0  0  0  0  0  0  0  0  0
    2.0544    1.9103   -2.4943 H   0  0  0  0  0  0  0  0  0  0  0  0
    1.8222    2.1059   -4.2346 H   0  0  0  0  0  0  0  0  0  0  0  0
    2.1798    4.3327   -3.0501 H   0  0  0  0  0  0  0  0  0  0  0  0
    3.4165    4.0189   -4.2808 H   0  0  0  0  0  0  0  0  0  0  0  0
    3.6943    3.6260   -1.2416 H   0  0  0  0  0  0  0  0  0  0  0  0
    4.5249    4.8408   -2.2315 H   0  0  0  0  0  0  0  0  0  0  0  0
    9.5044    1.9443   -2.5879 H   0  0  0  0  0  0  0  0  0  0  0  0
   10.1644    4.3598   -2.1443 H   0  0  0  0  0  0  0  0  0  0  0  0
  1  2  1  0
  1 20  1  0
  1 21  1  0
  1 22  1  0
  2  3  1  0
  2 23  1  0
  2 24  1  0
  3  4  1  0
  4  5  2  0
  4  6  1  0
  6  7  1  0
  6 11  1  0
  6 25  1  6
  7  8  1  0
  7 26  1  0
  7 27  1  0
  8  9  1  0
  8 28  1  0
  8 29  1  0
  9 10  1  0
  9 30  1  0
  9 31  1  0
 10 11  1  0
 10 32  1  0
 10 33  1  0
 11 12  1  0
 12 13  2  0
 12 19  1  0
 13 14  1  0
 14 15  2  0
 14 34  1  0
 15 16  1  0
 15 35  1  0
 16 17  1  0
 16 19  2  0
 17 18  3  0
M  END

