
     RDKit          3D

 46 46  0  0  0  0  0  0  0  0999 V2000
    3.1233   -8.0650   -4.1947 C   0  0  0  0  0  0  0  0  0  0  0  0
    3.6813   -6.6822   -3.9822 C   0  0  0  0  0  0  0  0  0  0  0  0
    4.8877   -6.2697   -4.5588 C   0  0  0  0  0  0  0  0  0  0  0  0
    5.3956   -4.9804   -4.3608 C   0  0  0  0  0  0  0  0  0  0  0  0
    4.6926   -4.0848   -3.5553 C   0  0  0  0  0  0  0  0  0  0  0  0
    3.4881   -4.4701   -2.9565 C   0  0  0  0  0  0  0  0  0  0  0  0
    2.9788   -5.7551   -3.1783 C   0  0  0  0  0  0  0  0  0  0  0  0
    1.8128   -6.2141   -2.6323 O   0  0  0  0  0  0  0  0  0  0  0  0
    0.7187   -5.3553   -2.3498 C   0  0  0  0  0  0  0  0  0  0  0  0
    0.5979   -4.9417   -0.8783 C   0  0  1  0  0  0  0  0  0  0  0  0
    1.4372   -3.8580   -0.5098 O   0  0  0  0  0  0  0  0  0  0  0  0
   -0.8591   -4.6243   -0.5024 C   0  0  0  0  0  0  0  0  0  0  0  0
   -1.7342   -5.7732   -0.6377 N   0  0  0  0  0  0  0  0  0  0  0  0
   -3.1463   -5.5034   -0.4162 C   0  0  0  0  0  0  0  0  0  0  0  0
   -3.9784   -6.7691   -0.6526 C   0  0  0  0  0  0  0  0  0  0  0  0
   -5.4012   -6.5780   -0.4583 N   0  0  0  0  0  0  0  0  0  0  0  0
   -5.9550   -6.6703    0.8032 C   0  0  0  0  0  0  0  0  0  0  0  0
   -5.2805   -6.9909    1.7744 O   0  0  0  0  0  0  0  0  0  0  0  0
   -7.3098   -6.3885    0.8893 N   0  0  0  0  0  0  0  0  0  0  0  0
   -8.1305   -6.1184   -0.2728 C   0  0  0  0  0  0  0  0  0  0  0  0
   -7.9784   -6.6135    2.1585 C   0  0  0  0  0  0  0  0  0  0  0  0
    3.7638   -8.6514   -4.8697 H   0  0  0  0  0  0  0  0  0  0  0  0
    2.1084   -8.0247   -4.6231 H   0  0  0  0  0  0  0  0  0  0  0  0
    3.0322   -8.6122   -3.2417 H   0  0  0  0  0  0  0  0  0  0  0  0
    5.4381   -6.9778   -5.1854 H   0  0  0  0  0  0  0  0  0  0  0  0
    6.3384   -4.6848   -4.8275 H   0  0  0  0  0  0  0  0  0  0  0  0
    5.0853   -3.0809   -3.3723 H   0  0  0  0  0  0  0  0  0  0  0  0
    2.9673   -3.8022   -2.2718 H   0  0  0  0  0  0  0  0  0  0  0  0
   -0.1855   -5.9320   -2.5976 H   0  0  0  0  0  0  0  0  0  0  0  0
    0.7474   -4.4569   -2.9951 H   0  0  0  0  0  0  0  0  0  0  0  0
    0.9443   -5.7973   -0.2729 H   0  0  0  0  0  0  0  0  0  0  0  0
    1.0958   -3.0555   -0.9291 H   0  0  0  0  0  0  0  0  0  0  0  0
   -1.2337   -3.8272   -1.1751 H   0  0  0  0  0  0  0  0  0  0  0  0
   -0.8453   -4.1848    0.5183 H   0  0  0  0  0  0  0  0  0  0  0  0
   -1.4266   -6.5133   -0.0054 H   0  0  0  0  0  0  0  0  0  0  0  0
   -3.4661   -4.7189   -1.1262 H   0  0  0  0  0  0  0  0  0  0  0  0
   -3.3682   -5.1217    0.6031 H   0  0  0  0  0  0  0  0  0  0  0  0
   -3.6511   -7.5514    0.0495 H   0  0  0  0  0  0  0  0  0  0  0  0
   -3.7978   -7.1388   -1.6746 H   0  0  0  0  0  0  0  0  0  0  0  0
   -5.9443   -6.2275   -1.2341 H   0  0  0  0  0  0  0  0  0  0  0  0
   -7.7177   -5.2979   -0.8863 H   0  0  0  0  0  0  0  0  0  0  0  0
   -9.1252   -5.7889    0.0584 H   0  0  0  0  0  0  0  0  0  0  0  0
   -8.2711   -7.0030   -0.9249 H   0  0  0  0  0  0  0  0  0  0  0  0
   -7.2131   -6.7836    2.9243 H   0  0  0  0  0  0  0  0  0  0  0  0
   -8.6426   -7.4978    2.1231 H   0  0  0  0  0  0  0  0  0  0  0  0
   -8.5868   -5.7372    2.4417 H   0  0  0  0  0  0  0  0  0  0  0  0
  1  2  1  0
  1 22  1  0
  1 23  1  0
  1 24  1  0
  2  3  2  0
  2  7  1  0
  3  4  1  0
  3 25  1  0
  4  5  2  0
  4 26  1  0
  5  6  1  0
  5 27  1  0
  6  7  2  0
  6 28  1  0
  7  8  1  0
  8  9  1  0
  9 10  1  0
  9 29  1  0
  9 30  1  0
 10 11  1  0
 10 12  1  0
 10 31  1  1
 11 32  1  0
 12 13  1  0
 12 33  1  0
 12 34  1  0
 13 14  1  0
 13 35  1  0
 14 15  1  0
 14 36  1  0
 14 37  1  0
 15 16  1  0
 15 38  1  0
 15 39  1  0
 16 17  1  0
 16 40  1  0
 17 18  2  0
 17 19  1  0
 19 20  1  0
 19 21  1  0
 20 41  1  0
 20 42  1  0
 20 43  1  0
 21 44  1  0
 21 45  1  0
 21 46  1  0
M  END

