
     RDKit          3D

 42 45  0  0  0  0  0  0  0  0999 V2000
    0.7532    0.1525    0.0232 O   0  0  0  0  0  0  0  0  0  0  0  0
    1.8935    0.0630   -0.3817 C   0  0  0  0  0  0  0  0  0  0  0  0
    2.6373    1.2807   -0.9701 C   0  0  0  0  0  0  0  0  0  0  0  0
    2.1910    2.3966   -1.0818 O   0  0  0  0  0  0  0  0  0  0  0  0
    3.9231    0.8533   -1.2991 N   0  0  0  0  0  0  0  0  0  0  0  0
    4.9431    1.7201   -1.7559 C   0  0  0  0  0  0  0  0  0  0  0  0
    4.6299    2.8403   -2.5495 C   0  0  0  0  0  0  0  0  0  0  0  0
    5.6412    3.6872   -2.9892 C   0  0  0  0  0  0  0  0  0  0  0  0
    5.3095    4.7441   -3.7424 F   0  0  0  0  0  0  0  0  0  0  0  0
    6.9820    3.4679   -2.6826 C   0  0  0  0  0  0  0  0  0  0  0  0
    7.3027    2.3629   -1.8942 C   0  0  0  0  0  0  0  0  0  0  0  0
    6.2994    1.5184   -1.4314 C   0  0  0  0  0  0  0  0  0  0  0  0
    6.6608    0.4879   -0.6413 F   0  0  0  0  0  0  0  0  0  0  0  0
    4.0874   -0.6005   -1.1690 C   0  0  2  0  0  0  0  0  0  0  0  0
    4.2790   -1.2978   -2.5184 C   0  0  0  0  0  0  0  0  0  0  0  0
    4.0771   -0.6910   -3.7633 C   0  0  0  0  0  0  0  0  0  0  0  0
    4.2877   -1.4456   -4.9195 C   0  0  0  0  0  0  0  0  0  0  0  0
    4.6869   -2.7789   -4.8058 C   0  0  0  0  0  0  0  0  0  0  0  0
    4.8460   -3.3098   -3.5256 C   0  0  0  0  0  0  0  0  0  0  0  0
    4.6513   -2.5840   -2.4205 N   0  0  0  0  0  0  0  0  0  0  0  0
    2.8290   -1.0548   -0.4262 C   0  0  0  0  0  0  0  0  0  0  0  0
    2.7084   -2.3181    0.1169 C   0  0  0  0  0  0  0  0  0  0  0  0
    3.5981   -3.2750   -0.1115 O   0  0  0  0  0  0  0  0  0  0  0  0
    1.6195   -2.7818    1.0197 C   0  0  0  0  0  0  0  0  0  0  0  0
    1.2029   -4.1214    0.9413 C   0  0  0  0  0  0  0  0  0  0  0  0
    0.2100   -4.5742    1.8121 C   0  0  0  0  0  0  0  0  0  0  0  0
   -0.3612   -3.8050    2.7417 N   0  0  0  0  0  0  0  0  0  0  0  0
    0.0491   -2.5371    2.8287 C   0  0  0  0  0  0  0  0  0  0  0  0
    1.0234   -1.9758    1.9995 C   0  0  0  0  0  0  0  0  0  0  0  0
    3.5954    3.0663   -2.7980 H   0  0  0  0  0  0  0  0  0  0  0  0
    7.7464    4.1545   -3.0491 H   0  0  0  0  0  0  0  0  0  0  0  0
    8.3337    2.1460   -1.6086 H   0  0  0  0  0  0  0  0  0  0  0  0
    4.9772   -0.8340   -0.5673 H   0  0  0  0  0  0  0  0  0  0  0  0
    3.7669    0.3512   -3.8277 H   0  0  0  0  0  0  0  0  0  0  0  0
    4.1403   -0.9922   -5.9029 H   0  0  0  0  0  0  0  0  0  0  0  0
    4.8636   -3.3989   -5.6867 H   0  0  0  0  0  0  0  0  0  0  0  0
    5.1363   -4.3551   -3.3790 H   0  0  0  0  0  0  0  0  0  0  0  0
    4.1756   -3.0831   -0.9211 H   0  0  0  0  0  0  0  0  0  0  0  0
    1.6508   -4.7957    0.2106 H   0  0  0  0  0  0  0  0  0  0  0  0
   -0.1342   -5.6138    1.7552 H   0  0  0  0  0  0  0  0  0  0  0  0
   -0.4223   -1.9214    3.6035 H   0  0  0  0  0  0  0  0  0  0  0  0
    1.3063   -0.9329    2.1272 H   0  0  0  0  0  0  0  0  0  0  0  0
  1  2  2  0
  2  3  1  0
  2 21  1  0
  3  4  2  0
  3  5  1  0
  5  6  1  0
  5 14  1  0
  6  7  2  0
  6 12  1  0
  7  8  1  0
  7 30  1  0
  8  9  1  0
  8 10  2  0
 10 11  1  0
 10 31  1  0
 11 12  2  0
 11 32  1  0
 12 13  1  0
 14 15  1  0
 14 21  1  0
 14 33  1  1
 15 16  2  0
 15 20  1  0
 16 17  1  0
 16 34  1  0
 17 18  2  0
 17 35  1  0
 18 19  1  0
 18 36  1  0
 19 20  2  0
 19 37  1  0
 21 22  2  0
 22 23  1  0
 22 24  1  0
 23 38  1  0
 24 25  2  0
 24 29  1  0
 25 26  1  0
 25 39  1  0
 26 27  2  0
 26 40  1  0
 27 28  1  0
 28 29  2  0
 28 41  1  0
 29 42  1  0
M  END

