
     RDKit          3D

 44 47  0  0  0  0  0  0  0  0999 V2000
    4.1397    0.9038   -0.8248 C   0  0  0  0  0  0  0  0  0  0  0  0
    2.9651    0.9102    0.1678 C   0  0  1  0  0  0  0  0  0  0  0  0
    1.6817    1.1083   -0.5211 C   0  0  0  0  0  0  0  0  0  0  0  0
    0.6715    1.2444   -1.0728 N   0  0  0  0  0  0  0  0  0  0  0  0
    2.9052   -0.3804    1.0266 C   0  0  0  0  0  0  0  0  0  0  0  0
    4.0987   -0.5694    1.8126 N   0  0  0  0  0  0  0  0  0  0  0  0
    4.2923    0.3278    2.9548 C   0  0  0  0  0  0  0  0  0  0  0  0
    5.2726   -0.4228    3.8234 C   0  0  0  0  0  0  0  0  0  0  0  0
    6.0192    0.0352    4.9014 C   0  0  0  0  0  0  0  0  0  0  0  0
    6.8457   -0.8998    5.5500 C   0  0  0  0  0  0  0  0  0  0  0  0
    7.6921   -0.7345    6.6208 N   0  0  0  0  0  0  0  0  0  0  0  0
    8.2354   -1.9131    6.8405 C   0  0  0  0  0  0  0  0  0  0  0  0
    9.2031   -2.1567    7.9269 C   0  0  0  0  0  0  0  0  0  0  0  0
    9.2567   -3.3591    8.6565 C   0  0  0  0  0  0  0  0  0  0  0  0
   10.1718   -3.5161    9.7010 C   0  0  0  0  0  0  0  0  0  0  0  0
   11.0422   -2.4762   10.0371 C   0  0  0  0  0  0  0  0  0  0  0  0
   10.9835   -1.2694    9.3304 C   0  0  0  0  0  0  0  0  0  0  0  0
   10.0714   -1.1083    8.2888 C   0  0  0  0  0  0  0  0  0  0  0  0
    7.7972   -2.8802    5.9374 N   0  0  0  0  0  0  0  0  0  0  0  0
    8.2694   -4.2375    5.7466 C   0  0  0  0  0  0  0  0  0  0  0  0
    6.8919   -2.2482    5.1021 C   0  0  0  0  0  0  0  0  0  0  0  0
    6.1402   -2.7115    4.0128 C   0  0  0  0  0  0  0  0  0  0  0  0
    5.3320   -1.7665    3.3879 C   0  0  0  0  0  0  0  0  0  0  0  0
    4.3899   -1.9454    2.2242 C   0  0  0  0  0  0  0  0  0  0  0  0
    4.2154    1.8611   -1.3612 H   0  0  0  0  0  0  0  0  0  0  0  0
    4.0155    0.1017   -1.5693 H   0  0  0  0  0  0  0  0  0  0  0  0
    5.0728    0.7210   -0.2742 H   0  0  0  0  0  0  0  0  0  0  0  0
    3.0822    1.7707    0.8502 H   0  0  0  0  0  0  0  0  0  0  0  0
    2.7937   -1.2392    0.3444 H   0  0  0  0  0  0  0  0  0  0  0  0
    1.9846   -0.3500    1.6535 H   0  0  0  0  0  0  0  0  0  0  0  0
    3.3401    0.5159    3.5068 H   0  0  0  0  0  0  0  0  0  0  0  0
    4.6754    1.3151    2.6395 H   0  0  0  0  0  0  0  0  0  0  0  0
    5.9859    1.0716    5.2446 H   0  0  0  0  0  0  0  0  0  0  0  0
    8.5575   -4.1680    8.4384 H   0  0  0  0  0  0  0  0  0  0  0  0
   10.1948   -4.4535   10.2625 H   0  0  0  0  0  0  0  0  0  0  0  0
   11.7581   -2.6016   10.8534 H   0  0  0  0  0  0  0  0  0  0  0  0
   11.6541   -0.4477    9.5945 H   0  0  0  0  0  0  0  0  0  0  0  0
   10.0078   -0.1682    7.7386 H   0  0  0  0  0  0  0  0  0  0  0  0
    9.2715   -4.3524    6.1773 H   0  0  0  0  0  0  0  0  0  0  0  0
    8.3331   -4.4523    4.6692 H   0  0  0  0  0  0  0  0  0  0  0  0
    7.5965   -4.9795    6.2091 H   0  0  0  0  0  0  0  0  0  0  0  0
    6.1787   -3.7495    3.6739 H   0  0  0  0  0  0  0  0  0  0  0  0
    3.4752   -2.4950    2.5505 H   0  0  0  0  0  0  0  0  0  0  0  0
    4.8284   -2.5255    1.3920 H   0  0  0  0  0  0  0  0  0  0  0  0
  1  2  1  0
  1 25  1  0
  1 26  1  0
  1 27  1  0
  2  3  1  0
  2  5  1  0
  2 28  1  1
  3  4  3  0
  5  6  1  0
  5 29  1  0
  5 30  1  0
  6  7  1  0
  6 24  1  0
  7  8  1  0
  7 31  1  0
  7 32  1  0
  8  9  2  0
  8 23  1  0
  9 10  1  0
  9 33  1  0
 10 11  1  0
 10 21  2  0
 11 12  2  0
 12 13  1  0
 12 19  1  0
 13 14  2  0
 13 18  1  0
 14 15  1  0
 14 34  1  0
 15 16  2  0
 15 35  1  0
 16 17  1  0
 16 36  1  0
 17 18  2  0
 17 37  1  0
 18 38  1  0
 19 20  1  0
 19 21  1  0
 20 39  1  0
 20 40  1  0
 20 41  1  0
 21 22  1  0
 22 23  2  0
 22 42  1  0
 23 24  1  0
 24 43  1  0
 24 44  1  0
M  END

