
     RDKit          3D

 23 23  0  0  0  0  0  0  0  0999 V2000
    3.1967   -0.9733   -0.2489 F   0  0  0  0  0  0  0  0  0  0  0  0
    2.6485    0.1445    0.2450 C   0  0  1  0  0  0  0  0  0  0  0  0
    1.3565   -0.0864    0.4818 F   0  0  0  0  0  0  0  0  0  0  0  0
    3.2549    0.3859    1.4168 F   0  0  0  0  0  0  0  0  0  0  0  0
    2.7658    1.5461   -0.9086 S   0  0  0  0  0  0  0  0  0  0  0  0
    4.5956    1.6083   -1.0711 C   0  0  0  0  0  0  0  0  0  0  0  0
    5.0176    3.0317   -1.4107 C   0  0  0  0  0  0  0  0  0  0  0  0
    6.4180    3.0009   -1.5977 O   0  0  0  0  0  0  0  0  0  0  0  0
    7.0857    4.1367   -1.9114 C   0  0  0  0  0  0  0  0  0  0  0  0
    6.4782    5.3930   -2.0616 C   0  0  0  0  0  0  0  0  0  0  0  0
    7.2446    6.5171   -2.3875 C   0  0  0  0  0  0  0  0  0  0  0  0
    8.6228    6.4071   -2.5677 C   0  0  0  0  0  0  0  0  0  0  0  0
    9.2398    5.1598   -2.4204 C   0  0  0  0  0  0  0  0  0  0  0  0
    8.4818    4.0362   -2.0961 C   0  0  0  0  0  0  0  0  0  0  0  0
    9.3340    2.3464   -1.8993 Br  0  0  0  0  0  0  0  0  0  0  0  0
    4.9272    0.9157   -1.8574 H   0  0  0  0  0  0  0  0  0  0  0  0
    5.0492    1.3064   -0.1168 H   0  0  0  0  0  0  0  0  0  0  0  0
    4.7414    3.7187   -0.5904 H   0  0  0  0  0  0  0  0  0  0  0  0
    4.5119    3.3821   -2.3306 H   0  0  0  0  0  0  0  0  0  0  0  0
    5.4021    5.5014   -1.9240 H   0  0  0  0  0  0  0  0  0  0  0  0
    6.7499    7.4849   -2.4991 H   0  0  0  0  0  0  0  0  0  0  0  0
    9.2231    7.2832   -2.8220 H   0  0  0  0  0  0  0  0  0  0  0  0
   10.3172    5.0521   -2.5572 H   0  0  0  0  0  0  0  0  0  0  0  0
  2  1  1  6
  2  3  1  0
  2  4  1  0
  2  5  1  0
  5  6  1  0
  6  7  1  0
  6 16  1  0
  6 17  1  0
  7  8  1  0
  7 18  1  0
  7 19  1  0
  8  9  1  0
  9 10  2  0
  9 14  1  0
 10 11  1  0
 10 20  1  0
 11 12  2  0
 11 21  1  0
 12 13  1  0
 12 22  1  0
 13 14  2  0
 13 23  1  0
 14 15  1  0
M  END

