
     RDKit          3D

 35 35  0  0  0  0  0  0  0  0999 V2000
    6.6637    1.9718    3.0985 C   0  0  0  0  0  0  0  0  0  0  0  0
    6.8322    2.0060    1.6086 C   0  0  0  0  0  0  0  0  0  0  0  0
    6.0500    1.3774    0.7196 C   0  0  0  0  0  0  0  0  0  0  0  0
    6.2476    1.4009   -0.7700 C   0  0  0  0  0  0  0  0  0  0  0  0
    5.0387    1.9501   -1.5396 C   0  0  1  0  0  0  0  0  0  0  0  0
    4.6994    3.2896   -1.0466 N   0  0  0  0  0  0  0  0  0  0  0  0
    3.4948    3.8712   -1.2652 C   0  0  0  0  0  0  0  0  0  0  0  0
    2.6684    3.3739   -2.0396 O   0  0  0  0  0  0  0  0  0  0  0  0
    3.1920    5.1411   -0.5254 C   0  0  0  0  0  0  0  0  0  0  0  0
    4.1882    5.9615    0.0311 C   0  0  0  0  0  0  0  0  0  0  0  0
    3.8605    7.1451    0.7066 C   0  0  0  0  0  0  0  0  0  0  0  0
    4.9278    8.0357    1.2938 C   0  0  0  0  0  0  0  0  0  0  0  0
    2.5061    7.4968    0.8210 C   0  0  0  0  0  0  0  0  0  0  0  0
    1.5291    6.6818    0.2563 C   0  0  0  0  0  0  0  0  0  0  0  0
    0.2440    7.0403    0.3715 F   0  0  0  0  0  0  0  0  0  0  0  0
    1.8453    5.5116   -0.4250 C   0  0  0  0  0  0  0  0  0  0  0  0
    5.3102    1.9354   -3.0700 C   0  0  0  0  0  0  0  0  0  0  0  0
    6.3577    1.5588   -3.5296 O   0  0  0  0  0  0  0  0  0  0  0  0
    4.2950    2.3312   -3.8295 O   0  0  0  0  0  0  0  0  0  0  0  0
    7.5507    1.5314    3.5869 H   0  0  0  0  0  0  0  0  0  0  0  0
    5.7825    1.3838    3.3977 H   0  0  0  0  0  0  0  0  0  0  0  0
    6.5550    2.9889    3.5139 H   0  0  0  0  0  0  0  0  0  0  0  0
    7.6898    2.5811    1.2312 H   0  0  0  0  0  0  0  0  0  0  0  0
    5.1967    0.7911    1.0887 H   0  0  0  0  0  0  0  0  0  0  0  0
    6.4323    0.3846   -1.1538 H   0  0  0  0  0  0  0  0  0  0  0  0
    7.1402    1.9868   -1.0414 H   0  0  0  0  0  0  0  0  0  0  0  0
    4.1573    1.3010   -1.3735 H   0  0  0  0  0  0  0  0  0  0  0  0
    5.2691    3.6340   -0.2807 H   0  0  0  0  0  0  0  0  0  0  0  0
    5.2438    5.7058   -0.0877 H   0  0  0  0  0  0  0  0  0  0  0  0
    5.9351    7.6308    1.1194 H   0  0  0  0  0  0  0  0  0  0  0  0
    4.7935    8.1529    2.3818 H   0  0  0  0  0  0  0  0  0  0  0  0
    4.8893    9.0459    0.8541 H   0  0  0  0  0  0  0  0  0  0  0  0
    2.1980    8.4078    1.3397 H   0  0  0  0  0  0  0  0  0  0  0  0
    1.0670    4.8945   -0.8742 H   0  0  0  0  0  0  0  0  0  0  0  0
    3.5303    2.6275   -3.2678 H   0  0  0  0  0  0  0  0  0  0  0  0
  1  2  1  0
  1 20  1  0
  1 21  1  0
  1 22  1  0
  2  3  2  0
  2 23  1  0
  3  4  1  0
  3 24  1  0
  4  5  1  0
  4 25  1  0
  4 26  1  0
  5  6  1  0
  5 17  1  0
  5 27  1  6
  6  7  1  0
  6 28  1  0
  7  8  2  0
  7  9  1  0
  9 10  2  0
  9 16  1  0
 10 11  1  0
 10 29  1  0
 11 12  1  0
 11 13  2  0
 12 30  1  0
 12 31  1  0
 12 32  1  0
 13 14  1  0
 13 33  1  0
 14 15  1  0
 14 16  2  0
 16 34  1  0
 17 18  2  0
 17 19  1  0
 19 35  1  0
M  END

