
     RDKit          3D

 49 51  0  0  0  0  0  0  0  0999 V2000
    3.5834   11.0126   -2.3279 C   0  0  0  0  0  0  0  0  0  0  0  0
    4.0524    9.9270   -3.1241 O   0  0  0  0  0  0  0  0  0  0  0  0
    4.6859    8.9117   -2.4942 C   0  0  0  0  0  0  0  0  0  0  0  0
    4.8503    8.8751   -1.2923 O   0  0  0  0  0  0  0  0  0  0  0  0
    5.1227    7.8713   -3.4518 C   0  0  0  0  0  0  0  0  0  0  0  0
    5.6715    6.7542   -2.9131 C   0  0  0  0  0  0  0  0  0  0  0  0
    6.0487    5.6569   -3.6566 N   0  0  0  0  0  0  0  0  0  0  0  0
    6.6023    4.4664   -3.0177 C   0  0  0  0  0  0  0  0  0  0  0  0
    8.0662    4.1726   -3.3536 C   0  0  2  0  0  0  0  0  0  0  0  0
    8.3625    3.3082   -2.7240 H   0  0  0  0  0  0  0  0  0  0  0  0
    9.0773    5.3350   -3.1480 C   0  0  0  0  0  0  0  0  0  0  0  0
    9.7307    5.5115   -4.5350 C   0  0  0  0  0  0  0  0  0  0  0  0
    9.4253    4.1751   -5.2181 C   0  0  0  0  0  0  0  0  0  0  0  0
    8.1486    3.8029   -4.7240 O   0  0  0  0  0  0  0  0  0  0  0  0
    5.7330    5.6488   -5.0018 C   0  0  0  0  0  0  0  0  0  0  0  0
    5.1869    6.7134   -5.6406 C   0  0  0  0  0  0  0  0  0  0  0  0
    4.8057    6.4993   -7.0550 C   0  0  0  0  0  0  0  0  0  0  0  0
    5.0271    5.4996   -7.7054 O   0  0  0  0  0  0  0  0  0  0  0  0
    4.1501    7.5673   -7.5646 O   0  0  0  0  0  0  0  0  0  0  0  0
    3.7428    7.4656   -8.9263 C   0  0  0  0  0  0  0  0  0  0  0  0
    4.9719    8.0608   -4.9564 C   0  0  2  0  0  0  0  0  0  0  0  0
    5.9236    9.1390   -5.4962 C   0  0  0  0  0  0  0  0  0  0  0  0
    7.3086    9.0441   -5.2986 C   0  0  0  0  0  0  0  0  0  0  0  0
    8.1705   10.0250   -5.7952 C   0  0  0  0  0  0  0  0  0  0  0  0
    7.6677   11.1229   -6.4991 C   0  0  0  0  0  0  0  0  0  0  0  0
    6.2871   11.2149   -6.6912 C   0  0  0  0  0  0  0  0  0  0  0  0
    5.5722   12.7095   -7.6476 Br  0  0  0  0  0  0  0  0  0  0  0  0
    5.4172   10.2405   -6.1992 C   0  0  0  0  0  0  0  0  0  0  0  0
    2.6390   11.3596   -2.7697 H   0  0  0  0  0  0  0  0  0  0  0  0
    4.3198   11.8314   -2.3524 H   0  0  0  0  0  0  0  0  0  0  0  0
    3.4293   10.6931   -1.2882 H   0  0  0  0  0  0  0  0  0  0  0  0
    5.7986    6.6838   -1.8310 H   0  0  0  0  0  0  0  0  0  0  0  0
    6.0046    3.5864   -3.3078 H   0  0  0  0  0  0  0  0  0  0  0  0
    6.4998    4.5882   -1.9298 H   0  0  0  0  0  0  0  0  0  0  0  0
    9.8213    5.0586   -2.3860 H   0  0  0  0  0  0  0  0  0  0  0  0
    8.5853    6.2568   -2.8037 H   0  0  0  0  0  0  0  0  0  0  0  0
   10.8077    5.7294   -4.4797 H   0  0  0  0  0  0  0  0  0  0  0  0
    9.2492    6.3304   -5.0911 H   0  0  0  0  0  0  0  0  0  0  0  0
   10.1821    3.4091   -4.9505 H   0  0  0  0  0  0  0  0  0  0  0  0
    9.3653    4.2325   -6.3148 H   0  0  0  0  0  0  0  0  0  0  0  0
    5.9260    4.7199   -5.5386 H   0  0  0  0  0  0  0  0  0  0  0  0
    3.2547    8.4168   -9.1732 H   0  0  0  0  0  0  0  0  0  0  0  0
    3.0415    6.6285   -9.0653 H   0  0  0  0  0  0  0  0  0  0  0  0
    4.6102    7.3012   -9.5836 H   0  0  0  0  0  0  0  0  0  0  0  0
    3.9526    8.4125   -5.1727 H   0  0  0  0  0  0  0  0  0  0  0  0
    7.7174    8.1958   -4.7450 H   0  0  0  0  0  0  0  0  0  0  0  0
    9.2482    9.9394   -5.6331 H   0  0  0  0  0  0  0  0  0  0  0  0
    8.3337   11.8939   -6.8897 H   0  0  0  0  0  0  0  0  0  0  0  0
    4.3426   10.3326   -6.3612 H   0  0  0  0  0  0  0  0  0  0  0  0
  1  2  1  0
  1 29  1  0
  1 30  1  0
  1 31  1  0
  2  3  1  0
  3  4  2  0
  3  5  1  0
  5  6  2  0
  5 21  1  0
  6  7  1  0
  6 32  1  0
  7  8  1  0
  7 15  1  0
  8  9  1  0
  8 33  1  0
  8 34  1  0
  9 10  1  1
  9 11  1  0
  9 14  1  0
 11 12  1  0
 11 35  1  0
 11 36  1  0
 12 13  1  0
 12 37  1  0
 12 38  1  0
 13 14  1  0
 13 39  1  0
 13 40  1  0
 15 16  2  0
 15 41  1  0
 16 17  1  0
 16 21  1  0
 17 18  2  0
 17 19  1  0
 19 20  1  0
 20 42  1  0
 20 43  1  0
 20 44  1  0
 21 22  1  0
 21 45  1  1
 22 23  2  0
 22 28  1  0
 23 24  1  0
 23 46  1  0
 24 25  2  0
 24 47  1  0
 25 26  1  0
 25 48  1  0
 26 27  1  0
 26 28  2  0
 28 49  1  0
M  END

