
     RDKit          3D

 52 58  0  0  0  0  0  0  0  0999 V2000
    1.2399    0.2561   -1.1451 O   0  0  0  0  0  0  0  0  0  0  0  0
    2.3640    0.1457   -0.7015 C   0  0  0  0  0  0  0  0  0  0  0  0
    3.1457   -1.1184   -0.8023 C   0  0  0  0  0  0  0  0  0  0  0  0
    2.5815   -2.2088   -1.4449 C   0  0  0  0  0  0  0  0  0  0  0  0
    3.3042   -3.4151   -1.5660 C   0  0  0  0  0  0  0  0  0  0  0  0
    4.5749   -3.5311   -1.0343 C   0  0  0  0  0  0  0  0  0  0  0  0
    5.1806   -2.4384   -0.3550 C   0  0  0  0  0  0  0  0  0  0  0  0
    6.4936   -2.4978    0.2165 C   0  0  0  0  0  0  0  0  0  0  0  0
    7.2428   -3.7023    0.1588 N   0  0  0  0  0  0  0  0  0  0  0  0
    6.9769   -4.8704    0.8842 C   0  0  0  0  0  0  0  0  0  0  0  0
    5.9268   -5.1469    1.7676 C   0  0  0  0  0  0  0  0  0  0  0  0
    5.9033   -6.4036    2.3746 C   0  0  0  0  0  0  0  0  0  0  0  0
    6.9007   -7.3622    2.1145 C   0  0  0  0  0  0  0  0  0  0  0  0
    7.9502   -7.0768    1.2419 C   0  0  0  0  0  0  0  0  0  0  0  0
    7.9989   -5.8211    0.6189 C   0  0  0  0  0  0  0  0  0  0  0  0
    8.9286   -5.1922   -0.3008 C   0  0  0  0  0  0  0  0  0  0  0  0
   10.1115   -5.6146   -0.9250 C   0  0  0  0  0  0  0  0  0  0  0  0
   10.7781   -4.7388   -1.7810 C   0  0  0  0  0  0  0  0  0  0  0  0
   10.2719   -3.4476   -2.0222 C   0  0  0  0  0  0  0  0  0  0  0  0
    9.0962   -3.0025   -1.4159 C   0  0  0  0  0  0  0  0  0  0  0  0
    8.4349   -3.8841   -0.5528 C   0  0  0  0  0  0  0  0  0  0  0  0
    7.0444   -1.3753    0.8181 C   0  0  0  0  0  0  0  0  0  0  0  0
    6.3242   -0.1670    0.8932 C   0  0  0  0  0  0  0  0  0  0  0  0
    5.0424   -0.0804    0.3746 C   0  0  0  0  0  0  0  0  0  0  0  0
    4.4536   -1.2086   -0.2543 C   0  0  0  0  0  0  0  0  0  0  0  0
    4.3016    1.2069    0.4843 C   0  0  0  0  0  0  0  0  0  0  0  0
    4.7777    2.1910    1.0115 O   0  0  0  0  0  0  0  0  0  0  0  0
    2.9996    1.2302   -0.0585 N   0  0  0  0  0  0  0  0  0  0  0  0
    2.2584    2.4668    0.0462 C   0  0  0  0  0  0  0  0  0  0  0  0
    1.2283    2.5816    0.9830 C   0  0  0  0  0  0  0  0  0  0  0  0
    0.5113    3.7759    1.0813 C   0  0  0  0  0  0  0  0  0  0  0  0
    0.8265    4.8543    0.2494 C   0  0  0  0  0  0  0  0  0  0  0  0
    1.8600    4.7350   -0.6844 C   0  0  0  0  0  0  0  0  0  0  0  0
    2.5757    3.5404   -0.7895 C   0  0  0  0  0  0  0  0  0  0  0  0
    1.5755   -2.1059   -1.8561 H   0  0  0  0  0  0  0  0  0  0  0  0
    2.8547   -4.2631   -2.0876 H   0  0  0  0  0  0  0  0  0  0  0  0
    5.1282   -4.4656   -1.1351 H   0  0  0  0  0  0  0  0  0  0  0  0
    5.1528   -4.4071    1.9788 H   0  0  0  0  0  0  0  0  0  0  0  0
    5.0936   -6.6446    3.0680 H   0  0  0  0  0  0  0  0  0  0  0  0
    6.8524   -8.3366    2.6062 H   0  0  0  0  0  0  0  0  0  0  0  0
    8.7281   -7.8198    1.0491 H   0  0  0  0  0  0  0  0  0  0  0  0
   10.5046   -6.6179   -0.7428 H   0  0  0  0  0  0  0  0  0  0  0  0
   11.7012   -5.0557   -2.2718 H   0  0  0  0  0  0  0  0  0  0  0  0
   10.8080   -2.7779   -2.6995 H   0  0  0  0  0  0  0  0  0  0  0  0
    8.7078   -2.0014   -1.6110 H   0  0  0  0  0  0  0  0  0  0  0  0
    8.0459   -1.4431    1.2470 H   0  0  0  0  0  0  0  0  0  0  0  0
    6.7544    0.7147    1.3719 H   0  0  0  0  0  0  0  0  0  0  0  0
    0.9889    1.7343    1.6286 H   0  0  0  0  0  0  0  0  0  0  0  0
   -0.2964    3.8636    1.8120 H   0  0  0  0  0  0  0  0  0  0  0  0
    0.2659    5.7891    0.3289 H   0  0  0  0  0  0  0  0  0  0  0  0
    2.1112    5.5753   -1.3362 H   0  0  0  0  0  0  0  0  0  0  0  0
    3.3844    3.4386   -1.5158 H   0  0  0  0  0  0  0  0  0  0  0  0
  1  2  2  0
  2  3  1  0
  2 28  1  0
  3  4  1  0
  3 25  2  0
  4  5  2  0
  4 35  1  0
  5  6  1  0
  5 36  1  0
  6  7  2  0
  6 37  1  0
  7  8  1  0
  7 25  1  0
  8  9  1  0
  8 22  2  0
  9 10  1  0
  9 21  1  0
 10 11  2  0
 10 15  1  0
 11 12  1  0
 11 38  1  0
 12 13  2  0
 12 39  1  0
 13 14  1  0
 13 40  1  0
 14 15  2  0
 14 41  1  0
 15 16  1  0
 16 17  1  0
 16 21  2  0
 17 18  2  0
 17 42  1  0
 18 19  1  0
 18 43  1  0
 19 20  2  0
 19 44  1  0
 20 21  1  0
 20 45  1  0
 22 23  1  0
 22 46  1  0
 23 24  2  0
 23 47  1  0
 24 25  1  0
 24 26  1  0
 26 27  2  0
 26 28  1  0
 28 29  1  0
 29 30  2  0
 29 34  1  0
 30 31  1  0
 30 48  1  0
 31 32  2  0
 31 49  1  0
 32 33  1  0
 32 50  1  0
 33 34  2  0
 33 51  1  0
 34 52  1  0
M  END

