
     RDKit          3D

 40 42  0  0  0  0  0  0  0  0999 V2000
    0.7856   -0.4448    0.3271 C   0  0  0  0  0  0  0  0  0  0  0  0
    2.1673   -0.0879    0.0603 N   0  0  0  0  0  0  0  0  0  0  0  0
    2.6617   -0.3965   -1.2794 C   0  0  1  0  0  0  0  0  0  0  0  0
    1.9454    0.4610   -2.3555 C   0  0  0  0  0  0  0  0  0  0  0  0
    2.0970    1.9811   -2.2237 C   0  0  2  0  0  0  0  0  0  0  0  0
    1.0517    2.8604   -3.0271 C   0  0  0  0  0  0  0  0  0  0  0  0
    2.2432    3.5099   -3.7072 C   0  0  0  0  0  0  0  0  0  0  0  0
    2.6190    4.4750   -4.6342 C   0  0  0  0  0  0  0  0  0  0  0  0
    4.0001    4.6036   -4.8665 C   0  0  0  0  0  0  0  0  0  0  0  0
    4.9350    3.7991   -4.1957 C   0  0  0  0  0  0  0  0  0  0  0  0
    4.5411    2.8306   -3.2544 C   0  0  0  0  0  0  0  0  0  0  0  0
    3.1726    2.7163   -3.0297 C   0  0  0  0  0  0  0  0  0  0  0  0
    4.1800   -0.2677   -1.3308 C   0  0  0  0  0  0  0  0  0  0  0  0
    4.9060   -0.9932   -2.2908 C   0  0  0  0  0  0  0  0  0  0  0  0
    6.2935   -0.8793   -2.3628 C   0  0  0  0  0  0  0  0  0  0  0  0
    6.9809   -0.0453   -1.4733 C   0  0  0  0  0  0  0  0  0  0  0  0
    6.2839    0.6868   -0.5033 C   0  0  0  0  0  0  0  0  0  0  0  0
    7.0022    1.6043    0.4574 C   0  0  0  0  0  0  0  0  0  0  0  0
    4.8838    0.5639   -0.4499 C   0  0  0  0  0  0  0  0  0  0  0  0
    0.5811   -0.3301    1.4027 H   0  0  0  0  0  0  0  0  0  0  0  0
    0.5205   -1.4871    0.0387 H   0  0  0  0  0  0  0  0  0  0  0  0
    0.0911    0.2266   -0.2026 H   0  0  0  0  0  0  0  0  0  0  0  0
    2.7721   -0.5399    0.7436 H   0  0  0  0  0  0  0  0  0  0  0  0
    2.4272   -1.4522   -1.5509 H   0  0  0  0  0  0  0  0  0  0  0  0
    0.8709    0.2139   -2.3112 H   0  0  0  0  0  0  0  0  0  0  0  0
    2.2862    0.1303   -3.3505 H   0  0  0  0  0  0  0  0  0  0  0  0
    2.1083    2.2458   -1.1533 H   0  0  0  0  0  0  0  0  0  0  0  0
    0.4226    3.5209   -2.4072 H   0  0  0  0  0  0  0  0  0  0  0  0
    0.3951    2.2780   -3.6953 H   0  0  0  0  0  0  0  0  0  0  0  0
    1.8998    5.1044   -5.1659 H   0  0  0  0  0  0  0  0  0  0  0  0
    4.3578    5.3436   -5.5881 H   0  0  0  0  0  0  0  0  0  0  0  0
    5.9987    3.9315   -4.4134 H   0  0  0  0  0  0  0  0  0  0  0  0
    5.2815    2.2123   -2.7435 H   0  0  0  0  0  0  0  0  0  0  0  0
    4.3778   -1.6573   -2.9813 H   0  0  0  0  0  0  0  0  0  0  0  0
    6.8487   -1.4504   -3.1117 H   0  0  0  0  0  0  0  0  0  0  0  0
    8.0703    0.0324   -1.5319 H   0  0  0  0  0  0  0  0  0  0  0  0
    8.0947    1.5084    0.3704 H   0  0  0  0  0  0  0  0  0  0  0  0
    6.7247    1.3894    1.5024 H   0  0  0  0  0  0  0  0  0  0  0  0
    6.7427    2.6599    0.2682 H   0  0  0  0  0  0  0  0  0  0  0  0
    4.3246    1.1342    0.2957 H   0  0  0  0  0  0  0  0  0  0  0  0
  1  2  1  0
  1 20  1  0
  1 21  1  0
  1 22  1  0
  2  3  1  0
  2 23  1  0
  3  4  1  0
  3 13  1  0
  3 24  1  6
  4  5  1  0
  4 25  1  0
  4 26  1  0
  5  6  1  0
  5 12  1  0
  5 27  1  1
  6  7  1  0
  6 28  1  0
  6 29  1  0
  7  8  2  0
  7 12  1  0
  8  9  1  0
  8 30  1  0
  9 10  2  0
  9 31  1  0
 10 11  1  0
 10 32  1  0
 11 12  2  0
 11 33  1  0
 13 14  2  0
 13 19  1  0
 14 15  1  0
 14 34  1  0
 15 16  2  0
 15 35  1  0
 16 17  1  0
 16 36  1  0
 17 18  1  0
 17 19  2  0
 18 37  1  0
 18 38  1  0
 18 39  1  0
 19 40  1  0
M  END

