
     RDKit          3D

 41 43  0  0  0  0  0  0  0  0999 V2000
    4.7762    5.0865    0.3173 C   0  0  0  0  0  0  0  0  0  0  0  0
    5.3763    3.7064    0.3102 C   0  0  0  0  0  0  0  0  0  0  0  0
    4.5354    2.6931    0.5564 N   0  0  0  0  0  0  0  0  0  0  0  0
    4.9342    1.4509    0.5573 N   0  0  0  0  0  0  0  0  0  0  0  0
    6.2248    1.1189    0.3141 C   0  0  0  0  0  0  0  0  0  0  0  0
    6.4326   -0.2234    0.3225 N   0  0  0  0  0  0  0  0  0  0  0  0
    7.6194   -1.0127    0.0533 C   0  0  1  0  0  0  0  0  0  0  0  0
    8.4598   -1.3985    1.2940 C   0  0  0  0  0  0  0  0  0  0  0  0
    9.1440   -2.7045    0.8698 C   0  0  2  0  0  0  0  0  0  0  0  0
   10.4424   -2.4811    0.0765 C   0  0  0  0  0  0  0  0  0  0  0  0
    8.0580   -3.3637    0.1299 N   0  0  0  0  0  0  0  0  0  0  0  0
    8.3037   -4.6039   -0.5253 C   0  0  1  0  0  0  0  0  0  0  0  0
    8.4532   -5.8442    0.3191 C   0  0  0  0  0  0  0  0  0  0  0  0
    7.2118   -5.6479   -0.5120 C   0  0  0  0  0  0  0  0  0  0  0  0
    7.2662   -2.3777   -0.5946 C   0  0  0  0  0  0  0  0  0  0  0  0
    7.1969    2.1450    0.0892 C   0  0  0  0  0  0  0  0  0  0  0  0
    8.5932    1.8766   -0.0803 C   0  0  0  0  0  0  0  0  0  0  0  0
    9.7359    1.6980   -0.2028 N   0  0  0  0  0  0  0  0  0  0  0  0
    6.7490    3.4797    0.0766 C   0  0  0  0  0  0  0  0  0  0  0  0
    7.6803    4.6352   -0.1592 C   0  0  0  0  0  0  0  0  0  0  0  0
    3.7012    5.0018    0.5228 H   0  0  0  0  0  0  0  0  0  0  0  0
    4.9104    5.5991   -0.6503 H   0  0  0  0  0  0  0  0  0  0  0  0
    5.2314    5.7306    1.0886 H   0  0  0  0  0  0  0  0  0  0  0  0
    5.5866   -0.7249    0.5830 H   0  0  0  0  0  0  0  0  0  0  0  0
    8.2498   -0.4484   -0.6436 H   0  0  0  0  0  0  0  0  0  0  0  0
    7.7816   -1.5903    2.1404 H   0  0  0  0  0  0  0  0  0  0  0  0
    9.1660   -0.6069    1.5830 H   0  0  0  0  0  0  0  0  0  0  0  0
    9.3883   -3.3181    1.7546 H   0  0  0  0  0  0  0  0  0  0  0  0
   10.2879   -1.8406   -0.8073 H   0  0  0  0  0  0  0  0  0  0  0  0
   10.8648   -3.4378   -0.2683 H   0  0  0  0  0  0  0  0  0  0  0  0
   11.1994   -1.9917    0.7097 H   0  0  0  0  0  0  0  0  0  0  0  0
    8.9137   -4.5723   -1.4463 H   0  0  0  0  0  0  0  0  0  0  0  0
    8.3582   -5.7215    1.4011 H   0  0  0  0  0  0  0  0  0  0  0  0
    9.1819   -6.5970    0.0059 H   0  0  0  0  0  0  0  0  0  0  0  0
    6.2899   -5.3903    0.0160 H   0  0  0  0  0  0  0  0  0  0  0  0
    7.0744   -6.2645   -1.4047 H   0  0  0  0  0  0  0  0  0  0  0  0
    6.1845   -2.5954   -0.5066 H   0  0  0  0  0  0  0  0  0  0  0  0
    7.4880   -2.3576   -1.6818 H   0  0  0  0  0  0  0  0  0  0  0  0
    8.7174    4.3134   -0.3176 H   0  0  0  0  0  0  0  0  0  0  0  0
    7.6610    5.3295    0.6968 H   0  0  0  0  0  0  0  0  0  0  0  0
    7.3597    5.2160   -1.0396 H   0  0  0  0  0  0  0  0  0  0  0  0
  1  2  1  0
  1 21  1  0
  1 22  1  0
  1 23  1  0
  2  3  2  0
  2 19  1  0
  3  4  1  0
  4  5  2  0
  5  6  1  0
  5 16  1  0
  6  7  1  0
  6 24  1  0
  7  8  1  0
  7 15  1  0
  7 25  1  6
  8  9  1  0
  8 26  1  0
  8 27  1  0
  9 10  1  0
  9 11  1  0
  9 28  1  1
 10 29  1  0
 10 30  1  0
 10 31  1  0
 11 12  1  0
 11 15  1  0
 12 13  1  0
 12 14  1  0
 12 32  1  6
 13 14  1  0
 13 33  1  0
 13 34  1  0
 14 35  1  0
 14 36  1  0
 15 37  1  0
 15 38  1  0
 16 17  1  0
 16 19  2  0
 17 18  3  0
 19 20  1  0
 20 39  1  0
 20 40  1  0
 20 41  1  0
M  END

