
     RDKit          3D

 54 56  0  0  0  0  0  0  0  0999 V2000
    3.2989   -0.8125    0.0391 O   0  0  0  0  0  0  0  0  0  0  0  0
    2.6964   -0.2276    0.9266 C   0  0  0  0  0  0  0  0  0  0  0  0
    1.3446   -0.7402    1.4215 C   0  0  0  0  0  0  0  0  0  0  0  0
    0.9474   -2.0199    0.6958 C   0  0  0  0  0  0  0  0  0  0  0  0
   -0.6997   -2.5171    1.2870 S   0  0  1  0  0  0  0  0  0  0  0  0
   -0.5540   -2.8900    2.7057 O   0  0  0  0  0  0  0  0  0  0  0  0
   -1.6473   -1.4489    0.9082 O   0  0  0  0  0  0  0  0  0  0  0  0
   -1.1234   -4.0284    0.3490 C   0  0  1  0  0  0  0  0  0  0  0  0
   -2.4041   -4.6438    0.9852 C   0  0  0  0  0  0  0  0  0  0  0  0
   -3.3615   -4.8796   -0.1983 C   0  0  0  0  0  0  0  0  0  0  0  0
   -3.0008   -3.7654   -1.1886 C   0  0  0  0  0  0  0  0  0  0  0  0
   -1.4659   -3.7299   -1.1308 C   0  0  0  0  0  0  0  0  0  0  0  0
    3.1972    0.9092    1.5214 N   0  0  0  0  0  0  0  0  0  0  0  0
    2.5251    1.6957    2.5483 C   0  0  0  0  0  0  0  0  0  0  0  0
    2.1489    3.0852    2.0303 C   0  0  0  0  0  0  0  0  0  0  0  0
    3.6239    3.9834    1.4436 S   0  0  2  0  0  0  0  0  0  0  0  0
    4.5217    4.1066    2.6092 O   0  0  0  0  0  0  0  0  0  0  0  0
    3.1609    5.1919    0.7398 O   0  0  0  0  0  0  0  0  0  0  0  0
    4.4165    2.7507    0.2773 C   0  0  1  0  0  0  0  0  0  0  0  0
    3.5989    2.5970   -1.0223 C   0  0  0  0  0  0  0  0  0  0  0  0
    3.7175    3.7692   -2.0081 C   0  0  0  0  0  0  0  0  0  0  0  0
    5.1794    4.1404   -2.2801 C   0  0  0  0  0  0  0  0  0  0  0  0
    5.9258    4.4332   -0.9741 C   0  0  0  0  0  0  0  0  0  0  0  0
    5.8503    3.2447   -0.0067 C   0  0  0  0  0  0  0  0  0  0  0  0
    4.4896    1.4274    1.0832 C   0  0  0  0  0  0  0  0  0  0  0  0
    0.5641    0.0218    1.2597 H   0  0  0  0  0  0  0  0  0  0  0  0
    1.3723   -0.9310    2.5064 H   0  0  0  0  0  0  0  0  0  0  0  0
    1.6382   -2.8463    0.9126 H   0  0  0  0  0  0  0  0  0  0  0  0
    0.8996   -1.8718   -0.3911 H   0  0  0  0  0  0  0  0  0  0  0  0
   -0.2418   -4.6751    0.4689 H   0  0  0  0  0  0  0  0  0  0  0  0
   -2.8499   -3.9331    1.6983 H   0  0  0  0  0  0  0  0  0  0  0  0
   -2.1738   -5.5550    1.5543 H   0  0  0  0  0  0  0  0  0  0  0  0
   -4.4183   -4.8659    0.1095 H   0  0  0  0  0  0  0  0  0  0  0  0
   -3.1673   -5.8656   -0.6555 H   0  0  0  0  0  0  0  0  0  0  0  0
   -3.3987   -2.8018   -0.8319 H   0  0  0  0  0  0  0  0  0  0  0  0
   -3.3853   -3.9372   -2.2058 H   0  0  0  0  0  0  0  0  0  0  0  0
   -1.0460   -2.7794   -1.4919 H   0  0  0  0  0  0  0  0  0  0  0  0
   -1.0403   -4.5319   -1.7565 H   0  0  0  0  0  0  0  0  0  0  0  0
    3.1980    1.8137    3.4150 H   0  0  0  0  0  0  0  0  0  0  0  0
    1.6248    1.1816    2.9038 H   0  0  0  0  0  0  0  0  0  0  0  0
    1.7570    3.7349    2.8275 H   0  0  0  0  0  0  0  0  0  0  0  0
    1.4266    3.0530    1.2025 H   0  0  0  0  0  0  0  0  0  0  0  0
    2.5400    2.3939   -0.7945 H   0  0  0  0  0  0  0  0  0  0  0  0
    3.9719    1.6751   -1.5030 H   0  0  0  0  0  0  0  0  0  0  0  0
    3.1889    4.6438   -1.6011 H   0  0  0  0  0  0  0  0  0  0  0  0
    3.2103    3.4909   -2.9469 H   0  0  0  0  0  0  0  0  0  0  0  0
    5.2290    5.0129   -2.9520 H   0  0  0  0  0  0  0  0  0  0  0  0
    5.6816    3.3089   -2.8101 H   0  0  0  0  0  0  0  0  0  0  0  0
    5.4944    5.3270   -0.4950 H   0  0  0  0  0  0  0  0  0  0  0  0
    6.9853    4.6615   -1.1761 H   0  0  0  0  0  0  0  0  0  0  0  0
    6.3482    3.4801    0.9465 H   0  0  0  0  0  0  0  0  0  0  0  0
    6.3914    2.3851   -0.4441 H   0  0  0  0  0  0  0  0  0  0  0  0
    5.1313    1.5848    1.9653 H   0  0  0  0  0  0  0  0  0  0  0  0
    4.9494    0.6620    0.4447 H   0  0  0  0  0  0  0  0  0  0  0  0
  1  2  2  0
  2  3  1  0
  2 13  1  0
  3  4  1  0
  3 26  1  0
  3 27  1  0
  5  4  1  6
  4 28  1  0
  4 29  1  0
  5  6  2  0
  5  7  2  0
  5  8  1  0
  8  9  1  0
  8 12  1  0
  8 30  1  6
  9 10  1  0
  9 31  1  0
  9 32  1  0
 10 11  1  0
 10 33  1  0
 10 34  1  0
 11 12  1  0
 11 35  1  0
 11 36  1  0
 12 37  1  0
 12 38  1  0
 13 14  1  0
 13 25  1  0
 14 15  1  0
 14 39  1  0
 14 40  1  0
 16 15  1  1
 15 41  1  0
 15 42  1  0
 16 17  2  0
 16 18  2  0
 16 19  1  0
 19 20  1  6
 19 24  1  0
 19 25  1  0
 20 21  1  0
 20 43  1  0
 20 44  1  0
 21 22  1  0
 21 45  1  0
 21 46  1  0
 22 23  1  0
 22 47  1  0
 22 48  1  0
 23 24  1  0
 23 49  1  0
 23 50  1  0
 24 51  1  0
 24 52  1  0
 25 53  1  0
 25 54  1  0
M  END

