
     RDKit          3D

 49 53  0  0  0  0  0  0  0  0999 V2000
    5.9211    2.6894   -0.4042 C   0  0  0  0  0  0  0  0  0  0  0  0
    5.9008    1.2365    0.0833 C   0  0  0  0  0  0  0  0  0  0  0  0
    4.6891    0.4975   -0.2614 N   0  0  0  0  0  0  0  0  0  0  0  0
    3.5158    0.5787    0.6157 C   0  0  0  0  0  0  0  0  0  0  0  0
    3.8014    0.9251    2.0735 C   0  0  0  0  0  0  0  0  0  0  0  0
    4.5292   -0.0123   -1.5370 C   0  0  0  0  0  0  0  0  0  0  0  0
    3.2764   -0.5346   -1.9815 C   0  0  0  0  0  0  0  0  0  0  0  0
    3.1330   -1.0769   -3.2468 C   0  0  0  0  0  0  0  0  0  0  0  0
    4.2003   -1.1310   -4.1625 C   0  0  0  0  0  0  0  0  0  0  0  0
    5.4302   -0.6008   -3.7289 C   0  0  0  0  0  0  0  0  0  0  0  0
    5.5992   -0.0493   -2.4634 C   0  0  0  0  0  0  0  0  0  0  0  0
    6.5378   -0.5931   -4.5353 O   0  0  0  0  0  0  0  0  0  0  0  0
    6.5527   -1.1006   -5.8116 C   0  0  0  0  0  0  0  0  0  0  0  0
    7.5810   -1.0510   -6.4350 O   0  0  0  0  0  0  0  0  0  0  0  0
    5.2830   -1.6688   -6.3124 C   0  0  0  0  0  0  0  0  0  0  0  0
    5.2534   -2.1953   -7.6048 C   0  0  0  0  0  0  0  0  0  0  0  0
    4.0441   -2.7222   -8.0559 C   0  0  0  0  0  0  0  0  0  0  0  0
    3.5343   -3.3478   -9.2354 C   0  0  0  0  0  0  0  0  0  0  0  0
    2.2668   -3.6508   -9.0943 N   0  0  0  0  0  0  0  0  0  0  0  0
    1.8718   -3.2533   -7.8480 N   0  0  0  0  0  0  0  0  0  0  0  0
    0.5254   -3.4839   -7.4464 C   0  0  0  0  0  0  0  0  0  0  0  0
   -0.3047   -4.2612   -8.2713 C   0  0  0  0  0  0  0  0  0  0  0  0
   -1.6283   -4.4939   -7.8988 C   0  0  0  0  0  0  0  0  0  0  0  0
   -2.1398   -3.9631   -6.7104 C   0  0  0  0  0  0  0  0  0  0  0  0
   -1.3083   -3.1911   -5.8957 C   0  0  0  0  0  0  0  0  0  0  0  0
    0.0197   -2.9448   -6.2532 C   0  0  0  0  0  0  0  0  0  0  0  0
    2.9270   -2.6784   -7.1670 C   0  0  0  0  0  0  0  0  0  0  0  0
    2.9347   -2.1832   -5.9339 N   0  0  0  0  0  0  0  0  0  0  0  0
    4.1015   -1.6845   -5.5024 C   0  0  0  0  0  0  0  0  0  0  0  0
    6.8658    3.1786   -0.1163 H   0  0  0  0  0  0  0  0  0  0  0  0
    5.0936    3.2694    0.0352 H   0  0  0  0  0  0  0  0  0  0  0  0
    5.8285    2.7482   -1.4995 H   0  0  0  0  0  0  0  0  0  0  0  0
    6.0229    1.2110    1.1735 H   0  0  0  0  0  0  0  0  0  0  0  0
    6.7715    0.6916   -0.3100 H   0  0  0  0  0  0  0  0  0  0  0  0
    3.0151   -0.4024    0.6012 H   0  0  0  0  0  0  0  0  0  0  0  0
    2.7801    1.3026    0.2099 H   0  0  0  0  0  0  0  0  0  0  0  0
    4.5008    0.2112    2.5361 H   0  0  0  0  0  0  0  0  0  0  0  0
    2.8557    0.8735    2.6348 H   0  0  0  0  0  0  0  0  0  0  0  0
    4.2021    1.9414    2.2055 H   0  0  0  0  0  0  0  0  0  0  0  0
    2.4048   -0.5129   -1.3319 H   0  0  0  0  0  0  0  0  0  0  0  0
    2.1673   -1.4756   -3.5607 H   0  0  0  0  0  0  0  0  0  0  0  0
    6.5873    0.3400   -2.2316 H   0  0  0  0  0  0  0  0  0  0  0  0
    6.1622   -2.1784   -8.2099 H   0  0  0  0  0  0  0  0  0  0  0  0
    4.0520   -3.5778  -10.1668 H   0  0  0  0  0  0  0  0  0  0  0  0
    0.1008   -4.6685   -9.1960 H   0  0  0  0  0  0  0  0  0  0  0  0
   -2.2655   -5.1000   -8.5480 H   0  0  0  0  0  0  0  0  0  0  0  0
   -3.1773   -4.1495   -6.4232 H   0  0  0  0  0  0  0  0  0  0  0  0
   -1.6940   -2.7671   -4.9649 H   0  0  0  0  0  0  0  0  0  0  0  0
    0.6680   -2.3459   -5.6180 H   0  0  0  0  0  0  0  0  0  0  0  0
  1  2  1  0
  1 30  1  0
  1 31  1  0
  1 32  1  0
  2  3  1  0
  2 33  1  0
  2 34  1  0
  3  4  1  0
  3  6  1  0
  4  5  1  0
  4 35  1  0
  4 36  1  0
  5 37  1  0
  5 38  1  0
  5 39  1  0
  6  7  2  0
  6 11  1  0
  7  8  1  0
  7 40  1  0
  8  9  2  0
  8 41  1  0
  9 10  1  0
  9 29  1  0
 10 11  2  0
 10 12  1  0
 11 42  1  0
 12 13  1  0
 13 14  2  0
 13 15  1  0
 15 16  1  0
 15 29  2  0
 16 17  2  0
 16 43  1  0
 17 18  1  0
 17 27  1  0
 18 19  2  0
 18 44  1  0
 19 20  1  0
 20 21  1  0
 20 27  1  0
 21 22  2  0
 21 26  1  0
 22 23  1  0
 22 45  1  0
 23 24  2  0
 23 46  1  0
 24 25  1  0
 24 47  1  0
 25 26  2  0
 25 48  1  0
 26 49  1  0
 27 28  2  0
 28 29  1  0
M  END

