
     RDKit          3D

 48 51  0  0  0  0  0  0  0  0999 V2000
    1.0071   -3.7625    2.5177 C   0  0  0  0  0  0  0  0  0  0  0  0
    2.0305   -2.6743    2.6286 C   0  0  0  0  0  0  0  0  0  0  0  0
    2.1630   -1.9658    3.7841 N   0  0  0  0  0  0  0  0  0  0  0  0
    3.1278   -1.0824    3.5637 C   0  0  0  0  0  0  0  0  0  0  0  0
    3.6812   -0.0867    4.4061 C   0  0  0  0  0  0  0  0  0  0  0  0
    4.6894    0.7224    3.9316 C   0  0  0  0  0  0  0  0  0  0  0  0
    5.1816    0.5525    2.6049 C   0  0  0  0  0  0  0  0  0  0  0  0
    4.6541   -0.4132    1.7872 C   0  0  0  0  0  0  0  0  0  0  0  0
    3.6373   -1.2081    2.2567 N   0  0  0  0  0  0  0  0  0  0  0  0
    2.9255   -2.2337    1.6516 C   0  0  0  0  0  0  0  0  0  0  0  0
    3.1208   -2.6219    0.2213 C   0  0  0  0  0  0  0  0  0  0  0  0
    4.5035   -2.9893   -0.1067 N   0  0  0  0  0  0  0  0  0  0  0  0
    5.0372   -4.1512    0.6123 C   0  0  0  0  0  0  0  0  0  0  0  0
    4.5898   -5.4937    0.0058 C   0  0  0  0  0  0  0  0  0  0  0  0
    4.8693   -5.5913   -1.4309 N   0  0  0  0  0  0  0  0  0  0  0  0
    6.2327   -5.9721   -1.7687 C   0  0  0  0  0  0  0  0  0  0  0  0
    6.5385   -7.4336   -1.4754 C   0  0  0  0  0  0  0  0  0  0  0  0
    7.8088   -7.8254   -1.0309 C   0  0  0  0  0  0  0  0  0  0  0  0
    8.1033   -9.1758   -0.8191 C   0  0  0  0  0  0  0  0  0  0  0  0
    7.1342  -10.1565   -1.0393 C   0  0  0  0  0  0  0  0  0  0  0  0
    5.8658   -9.7598   -1.4753 C   0  0  0  0  0  0  0  0  0  0  0  0
    4.6344  -10.9756   -1.7514 Cl  0  0  0  0  0  0  0  0  0  0  0  0
    5.5615   -8.4157   -1.6941 C   0  0  0  0  0  0  0  0  0  0  0  0
    4.3323   -4.4347   -2.1460 C   0  0  0  0  0  0  0  0  0  0  0  0
    4.7819   -3.0919   -1.5405 C   0  0  0  0  0  0  0  0  0  0  0  0
    1.1148   -4.4709    3.3542 H   0  0  0  0  0  0  0  0  0  0  0  0
    1.0882   -4.3212    1.5745 H   0  0  0  0  0  0  0  0  0  0  0  0
   -0.0118   -3.3457    2.5828 H   0  0  0  0  0  0  0  0  0  0  0  0
    3.2801    0.0059    5.4162 H   0  0  0  0  0  0  0  0  0  0  0  0
    5.1217    1.4943    4.5722 H   0  0  0  0  0  0  0  0  0  0  0  0
    5.9906    1.1800    2.2274 H   0  0  0  0  0  0  0  0  0  0  0  0
    5.0076   -0.6348    0.7811 H   0  0  0  0  0  0  0  0  0  0  0  0
    2.8642   -1.7664   -0.4326 H   0  0  0  0  0  0  0  0  0  0  0  0
    2.3741   -3.4083   -0.0121 H   0  0  0  0  0  0  0  0  0  0  0  0
    4.7364   -4.0894    1.6700 H   0  0  0  0  0  0  0  0  0  0  0  0
    6.1400   -4.0839    0.5919 H   0  0  0  0  0  0  0  0  0  0  0  0
    3.5023   -5.6233    0.1538 H   0  0  0  0  0  0  0  0  0  0  0  0
    5.0765   -6.3327    0.5275 H   0  0  0  0  0  0  0  0  0  0  0  0
    7.0150   -5.3500   -1.2821 H   0  0  0  0  0  0  0  0  0  0  0  0
    6.3580   -5.8074   -2.8538 H   0  0  0  0  0  0  0  0  0  0  0  0
    8.5750   -7.0669   -0.8471 H   0  0  0  0  0  0  0  0  0  0  0  0
    9.0969   -9.4699   -0.4712 H   0  0  0  0  0  0  0  0  0  0  0  0
    7.3486  -11.2132   -0.8725 H   0  0  0  0  0  0  0  0  0  0  0  0
    4.5653   -8.1170   -2.0228 H   0  0  0  0  0  0  0  0  0  0  0  0
    3.2287   -4.4977   -2.1187 H   0  0  0  0  0  0  0  0  0  0  0  0
    4.6243   -4.4954   -3.2075 H   0  0  0  0  0  0  0  0  0  0  0  0
    4.2964   -2.2513   -2.0645 H   0  0  0  0  0  0  0  0  0  0  0  0
    5.8715   -2.9727   -1.6877 H   0  0  0  0  0  0  0  0  0  0  0  0
  1  2  1  0
  1 26  1  0
  1 27  1  0
  1 28  1  0
  2  3  1  0
  2 10  2  0
  3  4  2  0
  4  5  1  0
  4  9  1  0
  5  6  2  0
  5 29  1  0
  6  7  1  0
  6 30  1  0
  7  8  2  0
  7 31  1  0
  8  9  1  0
  8 32  1  0
  9 10  1  0
 10 11  1  0
 11 12  1  0
 11 33  1  0
 11 34  1  0
 12 13  1  0
 12 25  1  0
 13 14  1  0
 13 35  1  0
 13 36  1  0
 14 15  1  0
 14 37  1  0
 14 38  1  0
 15 16  1  0
 15 24  1  0
 16 17  1  0
 16 39  1  0
 16 40  1  0
 17 18  2  0
 17 23  1  0
 18 19  1  0
 18 41  1  0
 19 20  2  0
 19 42  1  0
 20 21  1  0
 20 43  1  0
 21 22  1  0
 21 23  2  0
 23 44  1  0
 24 25  1  0
 24 45  1  0
 24 46  1  0
 25 47  1  0
 25 48  1  0
M  END

