
     RDKit          3D

 51 53  0  0  0  0  0  0  0  0999 V2000
    2.1352   -1.2753    1.0169 C   0  0  0  0  0  0  0  0  0  0  0  0
    3.1101   -0.1459    1.0549 C   0  0  0  0  0  0  0  0  0  0  0  0
    4.2376   -0.0450    0.3727 N   0  0  0  0  0  0  0  0  0  0  0  0
    4.7645    1.1508    0.7697 C   0  0  0  0  0  0  0  0  0  0  0  0
    6.1047    1.6557    0.2877 C   0  0  1  0  0  0  0  0  0  0  0  0
    6.4254    1.1504   -1.1297 C   0  0  0  0  0  0  0  0  0  0  0  0
    5.5917    1.9022   -2.1689 C   0  0  0  0  0  0  0  0  0  0  0  0
    5.7892    3.4105   -2.0388 C   0  0  0  0  0  0  0  0  0  0  0  0
    5.5268    3.8914   -0.6759 N   0  0  0  0  0  0  0  0  0  0  0  0
    4.8125    5.0595   -0.5465 C   0  0  0  0  0  0  0  0  0  0  0  0
    4.2253    5.5619   -1.4972 O   0  0  0  0  0  0  0  0  0  0  0  0
    4.7150    5.8198    0.7980 C   0  0  1  0  0  0  0  0  0  0  0  0
    3.6525    5.2428    1.7640 C   0  0  0  0  0  0  0  0  0  0  0  0
    4.1340    5.7014    3.1466 C   0  0  0  0  0  0  0  0  0  0  0  0
    5.6562    5.5837    3.0357 C   0  0  0  0  0  0  0  0  0  0  0  0
    5.9217    5.9303    1.6324 N   0  0  0  0  0  0  0  0  0  0  0  0
    7.1104    6.5336    1.3004 C   0  0  0  0  0  0  0  0  0  0  0  0
    8.0197    6.6160    2.1158 O   0  0  0  0  0  0  0  0  0  0  0  0
    7.2658    7.1483   -0.0977 C   0  0  1  0  0  0  0  0  0  0  0  0
    7.2834    8.6802    0.0551 C   0  0  0  0  0  0  0  0  0  0  0  0
    8.5593    6.6372   -0.7460 C   0  0  0  0  0  0  0  0  0  0  0  0
    6.2525    3.1900    0.3812 C   0  0  0  0  0  0  0  0  0  0  0  0
    4.0205    1.7906    1.6616 N   0  0  0  0  0  0  0  0  0  0  0  0
    2.9749    0.9550    1.8328 N   0  0  0  0  0  0  0  0  0  0  0  0
    2.2204    1.2005    2.4638 H   0  0  0  0  0  0  0  0  0  0  0  0
    1.9609   -1.5833   -0.0239 H   0  0  0  0  0  0  0  0  0  0  0  0
    1.1722   -0.9967    1.4695 H   0  0  0  0  0  0  0  0  0  0  0  0
    2.5308   -2.1502    1.5579 H   0  0  0  0  0  0  0  0  0  0  0  0
    6.8589    1.2370    0.9794 H   0  0  0  0  0  0  0  0  0  0  0  0
    6.2440    0.0679   -1.1864 H   0  0  0  0  0  0  0  0  0  0  0  0
    7.4990    1.3179   -1.3266 H   0  0  0  0  0  0  0  0  0  0  0  0
    4.5242    1.6548   -2.0431 H   0  0  0  0  0  0  0  0  0  0  0  0
    5.8725    1.5913   -3.1888 H   0  0  0  0  0  0  0  0  0  0  0  0
    5.1289    3.9688   -2.7115 H   0  0  0  0  0  0  0  0  0  0  0  0
    6.8355    3.6658   -2.3042 H   0  0  0  0  0  0  0  0  0  0  0  0
    4.3913    6.8194    0.4672 H   0  0  0  0  0  0  0  0  0  0  0  0
    3.6482    4.1437    1.7167 H   0  0  0  0  0  0  0  0  0  0  0  0
    2.6466    5.5999    1.5001 H   0  0  0  0  0  0  0  0  0  0  0  0
    3.7210    5.0948    3.9667 H   0  0  0  0  0  0  0  0  0  0  0  0
    3.8513    6.7519    3.3286 H   0  0  0  0  0  0  0  0  0  0  0  0
    5.9986    4.5569    3.2649 H   0  0  0  0  0  0  0  0  0  0  0  0
    6.2196    6.2611    3.6913 H   0  0  0  0  0  0  0  0  0  0  0  0
    6.4179    6.8835   -0.7441 H   0  0  0  0  0  0  0  0  0  0  0  0
    8.1071    8.9866    0.7180 H   0  0  0  0  0  0  0  0  0  0  0  0
    6.3416    9.0552    0.4878 H   0  0  0  0  0  0  0  0  0  0  0  0
    7.4206    9.1650   -0.9245 H   0  0  0  0  0  0  0  0  0  0  0  0
    9.4179    6.8433   -0.0896 H   0  0  0  0  0  0  0  0  0  0  0  0
    8.7283    7.1291   -1.7170 H   0  0  0  0  0  0  0  0  0  0  0  0
    8.5210    5.5497   -0.9208 H   0  0  0  0  0  0  0  0  0  0  0  0
    5.9079    3.5271    1.3601 H   0  0  0  0  0  0  0  0  0  0  0  0
    7.3310    3.4296    0.3147 H   0  0  0  0  0  0  0  0  0  0  0  0
  1  2  1  0
  1 26  1  0
  1 27  1  0
  1 28  1  0
  2  3  2  0
  2 24  1  0
  3  4  1  0
  4  5  1  0
  4 23  2  0
  5  6  1  0
  5 22  1  0
  5 29  1  1
  6  7  1  0
  6 30  1  0
  6 31  1  0
  7  8  1  0
  7 32  1  0
  7 33  1  0
  8  9  1  0
  8 34  1  0
  8 35  1  0
  9 10  1  0
  9 22  1  0
 10 11  2  0
 10 12  1  0
 12 13  1  0
 12 16  1  0
 12 36  1  6
 13 14  1  0
 13 37  1  0
 13 38  1  0
 14 15  1  0
 14 39  1  0
 14 40  1  0
 15 16  1  0
 15 41  1  0
 15 42  1  0
 16 17  1  0
 17 18  2  0
 17 19  1  0
 19 20  1  0
 19 21  1  0
 19 43  1  6
 20 44  1  0
 20 45  1  0
 20 46  1  0
 21 47  1  0
 21 48  1  0
 21 49  1  0
 22 50  1  0
 22 51  1  0
 23 24  1  0
 24 25  1  0
M  END

