
     RDKit          3D

 18 19  0  0  0  0  0  0  0  0999 V2000
   -1.1442    0.8272    0.8656 C   0  0  0  0  0  0  0  0  0  0  0  0
   -0.0472    1.6494    0.1490 C   0  0  0  0  0  0  0  0  0  0  0  0
    0.8686    0.6620   -0.6044 C   0  0  1  0  0  0  0  0  0  0  0  0
    1.5972    1.1899   -1.2349 H   0  0  0  0  0  0  0  0  0  0  0  0
    1.5664   -0.2875    0.3919 C   0  0  0  0  0  0  0  0  0  0  0  0
    0.4707   -1.1080    1.1125 C   0  0  0  0  0  0  0  0  0  0  0  0
   -0.8976   -0.6640    0.5544 C   0  0  2  0  0  0  0  0  0  0  0  0
   -1.7120   -1.2949    0.9364 H   0  0  0  0  0  0  0  0  0  0  0  0
   -0.8642   -0.8233   -0.9204 N   0  0  0  0  0  0  0  0  0  0  0  0
    0.0173   -0.1602   -1.4993 N   0  0  0  0  0  0  0  0  0  0  0  0
   -2.1483    1.1109    0.5157 H   0  0  0  0  0  0  0  0  0  0  0  0
   -1.1272    0.9783    1.9568 H   0  0  0  0  0  0  0  0  0  0  0  0
    0.5582    2.2366    0.8579 H   0  0  0  0  0  0  0  0  0  0  0  0
   -0.4851    2.3603   -0.5678 H   0  0  0  0  0  0  0  0  0  0  0  0
    2.1696    0.3056    1.0976 H   0  0  0  0  0  0  0  0  0  0  0  0
    2.2608   -0.9428   -0.1553 H   0  0  0  0  0  0  0  0  0  0  0  0
    0.4863   -0.9500    2.2027 H   0  0  0  0  0  0  0  0  0  0  0  0
    0.6020   -2.1871    0.9406 H   0  0  0  0  0  0  0  0  0  0  0  0
  1  2  1  0
  1  7  1  0
  1 11  1  0
  1 12  1  0
  2  3  1  0
  2 13  1  0
  2 14  1  0
  3  4  1  6
  3  5  1  0
  3 10  1  0
  5  6  1  0
  5 15  1  0
  5 16  1  0
  6  7  1  0
  6 17  1  0
  6 18  1  0
  7  8  1  1
  7  9  1  0
  9 10  2  0
M  END

