
     RDKit          3D

 44 47  0  0  0  0  0  0  0  0999 V2000
    2.4133   -0.6033    1.5915 C   0  0  0  0  0  0  0  0  0  0  0  0
    2.9593   -0.0744    0.4079 O   0  0  0  0  0  0  0  0  0  0  0  0
    3.2362   -0.9108   -0.6294 C   0  0  0  0  0  0  0  0  0  0  0  0
    3.7775   -0.3233   -1.7818 C   0  0  0  0  0  0  0  0  0  0  0  0
    4.0922   -1.0980   -2.8913 C   0  0  0  0  0  0  0  0  0  0  0  0
    3.8738   -2.4909   -2.8814 C   0  0  0  0  0  0  0  0  0  0  0  0
    4.1788   -3.3150   -3.9840 N   0  0  0  0  0  0  0  0  0  0  0  0
    4.7024   -2.9527   -5.1947 C   0  0  0  0  0  0  0  0  0  0  0  0
    5.0041   -1.8153   -5.5345 O   0  0  0  0  0  0  0  0  0  0  0  0
    4.9054   -4.0827   -6.1562 C   0  0  0  0  0  0  0  0  0  0  0  0
    5.5679   -3.6140   -7.7116 S   0  0  0  0  0  0  0  0  0  0  0  0
    5.5293   -5.2836   -8.2558 C   0  0  0  0  0  0  0  0  0  0  0  0
    5.9321   -5.6611   -9.4583 N   0  0  0  0  0  0  0  0  0  0  0  0
    5.8569   -6.9653   -9.7625 C   0  0  0  0  0  0  0  0  0  0  0  0
    6.3115   -7.3470  -11.1041 C   0  0  0  0  0  0  0  0  0  0  0  0
    6.8058   -6.5030  -12.0801 C   0  0  0  0  0  0  0  0  0  0  0  0
    7.1628   -7.1793  -13.2789 C   0  0  0  0  0  0  0  0  0  0  0  0
    6.9393   -8.5338  -13.2101 C   0  0  0  0  0  0  0  0  0  0  0  0
    6.2894   -8.9983  -11.6789 S   0  0  0  0  0  0  0  0  0  0  0  0
    5.3633   -7.9214   -8.8327 C   0  0  0  0  0  0  0  0  0  0  0  0
    4.9440   -7.5152   -7.5755 C   0  0  0  0  0  0  0  0  0  0  0  0
    5.0194   -6.1490   -7.2501 C   0  0  0  0  0  0  0  0  0  0  0  0
    4.6666   -5.4375   -6.0503 C   0  0  0  0  0  0  0  0  0  0  0  0
    4.1285   -6.0381   -4.8682 N   0  0  0  0  0  0  0  0  0  0  0  0
    3.3283   -3.0950   -1.7250 C   0  0  0  0  0  0  0  0  0  0  0  0
    3.0756   -4.5824   -1.6650 C   0  0  0  0  0  0  0  0  0  0  0  0
    3.0173   -2.2945   -0.6149 C   0  0  0  0  0  0  0  0  0  0  0  0
    2.2739    0.2418    2.2796 H   0  0  0  0  0  0  0  0  0  0  0  0
    3.0874   -1.3403    2.0663 H   0  0  0  0  0  0  0  0  0  0  0  0
    1.4332   -1.0849    1.4173 H   0  0  0  0  0  0  0  0  0  0  0  0
    3.9463    0.7554   -1.7886 H   0  0  0  0  0  0  0  0  0  0  0  0
    4.5114   -0.6404   -3.7839 H   0  0  0  0  0  0  0  0  0  0  0  0
    3.9948   -4.3190   -3.8998 H   0  0  0  0  0  0  0  0  0  0  0  0
    6.8979   -5.4306  -11.9111 H   0  0  0  0  0  0  0  0  0  0  0  0
    7.5704   -6.6838  -14.1613 H   0  0  0  0  0  0  0  0  0  0  0  0
    7.1200   -9.2881  -13.9747 H   0  0  0  0  0  0  0  0  0  0  0  0
    5.3153   -8.9759   -9.1106 H   0  0  0  0  0  0  0  0  0  0  0  0
    4.5636   -8.2438   -6.8541 H   0  0  0  0  0  0  0  0  0  0  0  0
    3.2579   -6.5344   -5.0675 H   0  0  0  0  0  0  0  0  0  0  0  0
    4.7747   -6.7244   -4.4735 H   0  0  0  0  0  0  0  0  0  0  0  0
    4.0026   -5.1649   -1.8070 H   0  0  0  0  0  0  0  0  0  0  0  0
    2.3716   -4.9136   -2.4481 H   0  0  0  0  0  0  0  0  0  0  0  0
    2.6496   -4.8711   -0.6938 H   0  0  0  0  0  0  0  0  0  0  0  0
    2.5974   -2.7804    0.2665 H   0  0  0  0  0  0  0  0  0  0  0  0
  1  2  1  0
  1 28  1  0
  1 29  1  0
  1 30  1  0
  2  3  1  0
  3  4  2  0
  3 27  1  0
  4  5  1  0
  4 31  1  0
  5  6  2  0
  5 32  1  0
  6  7  1  0
  6 25  1  0
  7  8  1  0
  7 33  1  0
  8  9  2  0
  8 10  1  0
 10 11  1  0
 10 23  2  0
 11 12  1  0
 12 13  2  0
 12 22  1  0
 13 14  1  0
 14 15  1  0
 14 20  2  0
 15 16  2  0
 15 19  1  0
 16 17  1  0
 16 34  1  0
 17 18  2  0
 17 35  1  0
 18 19  1  0
 18 36  1  0
 20 21  1  0
 20 37  1  0
 21 22  2  0
 21 38  1  0
 22 23  1  0
 23 24  1  0
 24 39  1  0
 24 40  1  0
 25 26  1  0
 25 27  2  0
 26 41  1  0
 26 42  1  0
 26 43  1  0
 27 44  1  0
M  END

