
     RDKit          3D

 38 38  0  0  0  0  0  0  0  0999 V2000
    0.9959    0.7538    0.1417 C   0  0  0  0  0  0  0  0  0  0  0  0
    2.5108    0.5779    0.0156 C   0  0  0  0  0  0  0  0  0  0  0  0
    2.9660   -0.6523   -0.8016 C   0  0  1  0  0  0  0  0  0  0  0  0
    2.6408   -0.4953   -2.3012 C   0  0  0  0  0  0  0  0  0  0  0  0
    2.7859   -1.7468   -3.1308 C   0  0  0  0  0  0  0  0  0  0  0  0
    4.0285   -2.2473   -3.3847 N   0  0  0  0  0  0  0  0  0  0  0  0
    1.6860   -2.2481   -3.5936 N   0  0  0  0  0  0  0  0  0  0  0  0
    1.9677   -3.4246   -4.3330 O   0  0  0  0  0  0  0  0  0  0  0  0
    4.3937   -0.9460   -0.6615 N   0  0  0  0  0  0  0  0  0  0  0  0
    4.9108   -1.4660    0.5944 C   0  0  1  0  0  0  0  0  0  0  0  0
    4.4076   -2.8996    0.8817 C   0  0  0  0  0  0  0  0  0  0  0  0
    4.8386   -3.9428   -0.1591 C   0  0  0  0  0  0  0  0  0  0  0  0
    6.3566   -4.1224   -0.2285 C   0  0  0  0  0  0  0  0  0  0  0  0
    7.2099   -2.5718   -0.6346 S   0  0  2  0  0  0  0  0  0  0  0  0
    6.8271   -2.1729   -2.0027 O   0  0  0  0  0  0  0  0  0  0  0  0
    8.6313   -2.7011   -0.2883 O   0  0  0  0  0  0  0  0  0  0  0  0
    6.4479   -1.4271    0.5642 C   0  0  0  0  0  0  0  0  0  0  0  0
    0.7502    1.6201    0.7761 H   0  0  0  0  0  0  0  0  0  0  0  0
    0.5274   -0.1344    0.5979 H   0  0  0  0  0  0  0  0  0  0  0  0
    0.5125    0.9157   -0.8342 H   0  0  0  0  0  0  0  0  0  0  0  0
    2.9417    0.5010    1.0290 H   0  0  0  0  0  0  0  0  0  0  0  0
    2.9593    1.4826   -0.4361 H   0  0  0  0  0  0  0  0  0  0  0  0
    2.4074   -1.5319   -0.4380 H   0  0  0  0  0  0  0  0  0  0  0  0
    3.2881    0.2983   -2.7200 H   0  0  0  0  0  0  0  0  0  0  0  0
    1.6003   -0.1671   -2.4211 H   0  0  0  0  0  0  0  0  0  0  0  0
    4.8251   -1.9908   -2.8080 H   0  0  0  0  0  0  0  0  0  0  0  0
    4.0679   -3.1162   -3.9028 H   0  0  0  0  0  0  0  0  0  0  0  0
    1.0956   -3.6781   -4.6553 H   0  0  0  0  0  0  0  0  0  0  0  0
    4.9483   -0.1541   -0.9832 H   0  0  0  0  0  0  0  0  0  0  0  0
    4.6184   -0.8439    1.4704 H   0  0  0  0  0  0  0  0  0  0  0  0
    3.3093   -2.8901    0.9526 H   0  0  0  0  0  0  0  0  0  0  0  0
    4.7703   -3.1938    1.8828 H   0  0  0  0  0  0  0  0  0  0  0  0
    4.4612   -3.6592   -1.1531 H   0  0  0  0  0  0  0  0  0  0  0  0
    4.3898   -4.9193    0.0866 H   0  0  0  0  0  0  0  0  0  0  0  0
    6.6756   -4.8176   -1.0203 H   0  0  0  0  0  0  0  0  0  0  0  0
    6.7952   -4.4528    0.7261 H   0  0  0  0  0  0  0  0  0  0  0  0
    6.8440   -0.4375    0.2849 H   0  0  0  0  0  0  0  0  0  0  0  0
    6.8796   -1.7058    1.5363 H   0  0  0  0  0  0  0  0  0  0  0  0
  1  2  1  0
  1 18  1  0
  1 19  1  0
  1 20  1  0
  2  3  1  0
  2 21  1  0
  2 22  1  0
  3  4  1  0
  3  9  1  0
  3 23  1  1
  4  5  1  0
  4 24  1  0
  4 25  1  0
  5  6  1  0
  5  7  2  0
  6 26  1  0
  6 27  1  0
  7  8  1  0
  8 28  1  0
  9 10  1  0
  9 29  1  0
 10 11  1  0
 10 17  1  0
 10 30  1  1
 11 12  1  0
 11 31  1  0
 11 32  1  0
 12 13  1  0
 12 33  1  0
 12 34  1  0
 14 13  1  1
 13 35  1  0
 13 36  1  0
 14 15  2  0
 14 16  2  0
 14 17  1  0
 17 37  1  0
 17 38  1  0
M  END

