
     RDKit          3D

 27 26  0  0  0  0  0  0  0  0999 V2000
    1.0311    0.2119    0.1140 C   0  0  0  0  0  0  0  0  0  0  0  0
    2.4474   -0.0813    0.0544 N   0  0  0  0  0  0  0  0  0  0  0  0
    3.2344    0.7611    0.8462 O   0  0  0  0  0  0  0  0  0  0  0  0
    3.0331   -0.6813   -1.0501 C   0  0  0  0  0  0  0  0  0  0  0  0
    2.3212   -1.2120   -1.8847 O   0  0  0  0  0  0  0  0  0  0  0  0
    4.5750   -0.6334   -1.0968 C   0  0  1  0  0  0  0  0  0  0  0  0
    4.8406    0.4390   -0.9811 H   0  0  0  0  0  0  0  0  0  0  0  0
    5.0821   -1.4516    0.0127 N   0  0  0  0  0  0  0  0  0  0  0  0
    5.1879   -1.0837   -2.4617 C   0  0  1  0  0  0  0  0  0  0  0  0
    4.6383   -0.1958   -3.5957 C   0  0  0  0  0  0  0  0  0  0  0  0
    6.7165   -0.8646   -2.3949 C   0  0  0  0  0  0  0  0  0  0  0  0
    4.9090   -2.5694   -2.7591 C   0  0  0  0  0  0  0  0  0  0  0  0
    0.6321   -0.0111    1.1177 H   0  0  0  0  0  0  0  0  0  0  0  0
    0.5305   -0.4241   -0.6253 H   0  0  0  0  0  0  0  0  0  0  0  0
    0.8400    1.2738   -0.1189 H   0  0  0  0  0  0  0  0  0  0  0  0
    3.1843    0.3851    1.7404 H   0  0  0  0  0  0  0  0  0  0  0  0
    4.8216   -1.0155    0.8952 H   0  0  0  0  0  0  0  0  0  0  0  0
    6.1011   -1.4432   -0.0007 H   0  0  0  0  0  0  0  0  0  0  0  0
    4.8360    0.8721   -3.3981 H   0  0  0  0  0  0  0  0  0  0  0  0
    3.5569   -0.3312   -3.7252 H   0  0  0  0  0  0  0  0  0  0  0  0
    5.1318   -0.4506   -4.5475 H   0  0  0  0  0  0  0  0  0  0  0  0
    6.9681    0.1722   -2.1139 H   0  0  0  0  0  0  0  0  0  0  0  0
    7.1676   -1.0595   -3.3807 H   0  0  0  0  0  0  0  0  0  0  0  0
    7.2124   -1.5457   -1.6842 H   0  0  0  0  0  0  0  0  0  0  0  0
    3.8347   -2.7471   -2.8941 H   0  0  0  0  0  0  0  0  0  0  0  0
    5.2587   -3.2046   -1.9317 H   0  0  0  0  0  0  0  0  0  0  0  0
    5.4353   -2.8771   -3.6779 H   0  0  0  0  0  0  0  0  0  0  0  0
  1  2  1  0
  1 13  1  0
  1 14  1  0
  1 15  1  0
  2  3  1  0
  2  4  1  0
  3 16  1  0
  4  5  2  0
  4  6  1  0
  6  7  1  1
  6  8  1  0
  6  9  1  0
  8 17  1  0
  8 18  1  0
  9 10  1  6
  9 11  1  0
  9 12  1  0
 10 19  1  0
 10 20  1  0
 10 21  1  0
 11 22  1  0
 11 23  1  0
 11 24  1  0
 12 25  1  0
 12 26  1  0
 12 27  1  0
M  END

