
     RDKit          3D

 38 40  0  0  0  0  0  0  0  0999 V2000
    1.8759   -3.1348    0.4593 C   0  0  0  0  0  0  0  0  0  0  0  0
    1.0206   -1.8468    0.5037 C   0  0  1  0  0  0  0  0  0  0  0  0
    1.7529   -0.6953    0.9680 N   0  0  0  0  0  0  0  0  0  0  0  0
    2.0945   -0.4160    2.2757 C   0  0  0  0  0  0  0  0  0  0  0  0
    1.6536   -1.2298    3.3443 C   0  0  0  0  0  0  0  0  0  0  0  0
    1.9764   -0.9220    4.6659 C   0  0  0  0  0  0  0  0  0  0  0  0
    2.7531    0.1976    4.9691 C   0  0  0  0  0  0  0  0  0  0  0  0
    3.2023    1.0026    3.9199 C   0  0  0  0  0  0  0  0  0  0  0  0
    2.8970    0.7201    2.5843 C   0  0  0  0  0  0  0  0  0  0  0  0
    3.4040    1.6572    1.5058 C   0  0  0  0  0  0  0  0  0  0  0  0
    2.5214    2.7883    1.2209 N   0  0  0  0  0  0  0  0  0  0  0  0
    1.5008    2.8571    0.3217 C   0  0  0  0  0  0  0  0  0  0  0  0
    0.9086    4.0987    0.4867 C   0  0  0  0  0  0  0  0  0  0  0  0
    1.6545    4.7027    1.5269 C   0  0  0  0  0  0  0  0  0  0  0  0
    2.6223    3.9011    1.9639 N   0  0  0  0  0  0  0  0  0  0  0  0
    0.4525   -1.5479   -0.8783 C   0  0  0  0  0  0  0  0  0  0  0  0
   -0.5995   -2.3101   -1.4196 C   0  0  0  0  0  0  0  0  0  0  0  0
   -1.0811   -2.0909   -2.6398 N   0  0  0  0  0  0  0  0  0  0  0  0
   -0.5170   -1.1066   -3.3451 C   0  0  0  0  0  0  0  0  0  0  0  0
    0.5228   -0.3375   -2.8180 C   0  0  0  0  0  0  0  0  0  0  0  0
    1.0002   -0.5597   -1.5900 N   0  0  0  0  0  0  0  0  0  0  0  0
    2.3037   -3.3418    1.4512 H   0  0  0  0  0  0  0  0  0  0  0  0
    2.7057   -3.0119   -0.2540 H   0  0  0  0  0  0  0  0  0  0  0  0
    1.2777   -4.0074    0.1527 H   0  0  0  0  0  0  0  0  0  0  0  0
    0.1594   -2.0287    1.1730 H   0  0  0  0  0  0  0  0  0  0  0  0
    2.0848   -0.0975    0.2222 H   0  0  0  0  0  0  0  0  0  0  0  0
    1.0441   -2.1114    3.1429 H   0  0  0  0  0  0  0  0  0  0  0  0
    1.6133   -1.5729    5.4661 H   0  0  0  0  0  0  0  0  0  0  0  0
    3.0069    0.4406    6.0029 H   0  0  0  0  0  0  0  0  0  0  0  0
    3.8036    1.8902    4.1345 H   0  0  0  0  0  0  0  0  0  0  0  0
    3.5895    1.1319    0.5563 H   0  0  0  0  0  0  0  0  0  0  0  0
    4.3600    2.0973    1.8187 H   0  0  0  0  0  0  0  0  0  0  0  0
    1.2757    2.0328   -0.3521 H   0  0  0  0  0  0  0  0  0  0  0  0
    0.0681    4.5093   -0.0681 H   0  0  0  0  0  0  0  0  0  0  0  0
    1.5285    5.6922    1.9667 H   0  0  0  0  0  0  0  0  0  0  0  0
   -1.0626   -3.1132   -0.8340 H   0  0  0  0  0  0  0  0  0  0  0  0
   -0.9027   -0.9169   -4.3527 H   0  0  0  0  0  0  0  0  0  0  0  0
    0.9744    0.4756   -3.3966 H   0  0  0  0  0  0  0  0  0  0  0  0
  1  2  1  0
  1 22  1  0
  1 23  1  0
  1 24  1  0
  2  3  1  0
  2 16  1  0
  2 25  1  1
  3  4  1  0
  3 26  1  0
  4  5  2  0
  4  9  1  0
  5  6  1  0
  5 27  1  0
  6  7  2  0
  6 28  1  0
  7  8  1  0
  7 29  1  0
  8  9  2  0
  8 30  1  0
  9 10  1  0
 10 11  1  0
 10 31  1  0
 10 32  1  0
 11 12  1  0
 11 15  1  0
 12 13  2  0
 12 33  1  0
 13 14  1  0
 13 34  1  0
 14 15  2  0
 14 35  1  0
 16 17  2  0
 16 21  1  0
 17 18  1  0
 17 36  1  0
 18 19  2  0
 19 20  1  0
 19 37  1  0
 20 21  2  0
 20 38  1  0
M  END

