
     RDKit          3D

 42 44  0  0  0  0  0  0  0  0999 V2000
   -0.9755    7.9477   -1.4778 C   0  0  0  0  0  0  0  0  0  0  0  0
    0.4621    8.3275   -1.4173 C   0  0  0  0  0  0  0  0  0  0  0  0
    1.5518    7.9930   -2.1715 C   0  0  0  0  0  0  0  0  0  0  0  0
    2.6129    8.7206   -1.5481 C   0  0  0  0  0  0  0  0  0  0  0  0
    3.9630    8.7743   -1.8830 N   0  0  0  0  0  0  0  0  0  0  0  0
    4.5265    8.1506   -2.9695 C   0  0  0  0  0  0  0  0  0  0  0  0
    3.9072    7.4684   -3.7616 O   0  0  0  0  0  0  0  0  0  0  0  0
    6.0144    8.4726   -3.2203 C   0  0  2  0  0  0  0  0  0  0  0  0
    6.0104    9.4223   -3.7813 H   0  0  0  0  0  0  0  0  0  0  0  0
    6.7167    7.4117   -4.0546 C   0  0  0  0  0  0  0  0  0  0  0  0
    6.7192    8.8362   -2.0137 O   0  0  0  0  0  0  0  0  0  0  0  0
    6.9083    7.9179   -1.0397 C   0  0  0  0  0  0  0  0  0  0  0  0
    6.5459    6.7730   -1.1135 O   0  0  0  0  0  0  0  0  0  0  0  0
    7.6255    8.5435    0.1588 C   0  0  1  0  0  0  0  0  0  0  0  0
    8.6810    8.6751   -0.1366 H   0  0  0  0  0  0  0  0  0  0  0  0
    7.0237    9.9143    0.4817 C   0  0  0  0  0  0  0  0  0  0  0  0
    5.6332    9.7759    0.7460 O   0  0  0  0  0  0  0  0  0  0  0  0
    5.3106    8.8699    1.7326 C   0  0  0  0  0  0  0  0  0  0  0  0
    4.0531    9.0034    2.3336 C   0  0  0  0  0  0  0  0  0  0  0  0
    3.6624    8.1190    3.3349 C   0  0  0  0  0  0  0  0  0  0  0  0
    4.5376    7.1003    3.7291 C   0  0  0  0  0  0  0  0  0  0  0  0
    4.0600    5.9877    4.9956 Cl  0  0  0  0  0  0  0  0  0  0  0  0
    5.7805    6.9533    3.1160 C   0  0  0  0  0  0  0  0  0  0  0  0
    6.1860    7.8329    2.1014 C   0  0  0  0  0  0  0  0  0  0  0  0
    7.5220    7.6540    1.4040 C   0  0  0  0  0  0  0  0  0  0  0  0
    2.1889    9.4274   -0.5200 N   0  0  0  0  0  0  0  0  0  0  0  0
    0.8320    9.1747   -0.4384 O   0  0  0  0  0  0  0  0  0  0  0  0
   -1.1476    7.2429   -2.3018 H   0  0  0  0  0  0  0  0  0  0  0  0
   -1.6103    8.8350   -1.6340 H   0  0  0  0  0  0  0  0  0  0  0  0
   -1.2955    7.4744   -0.5356 H   0  0  0  0  0  0  0  0  0  0  0  0
    1.6216    7.3390   -3.0320 H   0  0  0  0  0  0  0  0  0  0  0  0
    4.5473    9.3082   -1.2390 H   0  0  0  0  0  0  0  0  0  0  0  0
    7.7528    7.7228   -4.2561 H   0  0  0  0  0  0  0  0  0  0  0  0
    6.1852    7.3070   -5.0099 H   0  0  0  0  0  0  0  0  0  0  0  0
    6.7163    6.4390   -3.5486 H   0  0  0  0  0  0  0  0  0  0  0  0
    7.1102   10.6106   -0.3602 H   0  0  0  0  0  0  0  0  0  0  0  0
    7.5313   10.3507    1.3614 H   0  0  0  0  0  0  0  0  0  0  0  0
    3.3876    9.7924    1.9811 H   0  0  0  0  0  0  0  0  0  0  0  0
    2.6848    8.2137    3.8099 H   0  0  0  0  0  0  0  0  0  0  0  0
    6.4389    6.1369    3.4207 H   0  0  0  0  0  0  0  0  0  0  0  0
    7.6545    6.5989    1.1229 H   0  0  0  0  0  0  0  0  0  0  0  0
    8.3426    7.9097    2.0961 H   0  0  0  0  0  0  0  0  0  0  0  0
  1  2  1  0
  1 28  1  0
  1 29  1  0
  1 30  1  0
  2  3  2  0
  2 27  1  0
  3  4  1  0
  3 31  1  0
  4  5  1  0
  4 26  2  0
  5  6  1  0
  5 32  1  0
  6  7  2  0
  6  8  1  0
  8  9  1  6
  8 10  1  0
  8 11  1  0
 10 33  1  0
 10 34  1  0
 10 35  1  0
 11 12  1  0
 12 13  2  0
 12 14  1  0
 14 15  1  6
 14 16  1  0
 14 25  1  0
 16 17  1  0
 16 36  1  0
 16 37  1  0
 17 18  1  0
 18 19  2  0
 18 24  1  0
 19 20  1  0
 19 38  1  0
 20 21  2  0
 20 39  1  0
 21 22  1  0
 21 23  1  0
 23 24  2  0
 23 40  1  0
 24 25  1  0
 25 41  1  0
 25 42  1  0
 26 27  1  0
M  END

