
     RDKit          3D

 36 38  0  0  0  0  0  0  0  0999 V2000
    1.1195    0.4116   -0.6018 S   0  0  0  0  0  0  0  0  0  0  0  0
    2.6652    0.1446   -0.0153 C   0  0  0  0  0  0  0  0  0  0  0  0
    3.5376    1.1041    0.4546 N   0  0  0  0  0  0  0  0  0  0  0  0
    3.2399    2.5293    0.4600 C   0  0  0  0  0  0  0  0  0  0  0  0
    3.5210    3.2063   -0.8945 C   0  0  0  0  0  0  0  0  0  0  0  0
    3.0918    4.6563   -0.9036 C   0  0  0  0  0  0  0  0  0  0  0  0
    4.0198    5.6947   -0.7313 C   0  0  0  0  0  0  0  0  0  0  0  0
    3.6073    7.0308   -0.7113 C   0  0  0  0  0  0  0  0  0  0  0  0
    2.2548    7.3488   -0.8606 C   0  0  0  0  0  0  0  0  0  0  0  0
    1.3191    6.3229   -1.0317 C   0  0  0  0  0  0  0  0  0  0  0  0
    1.7344    4.9895   -1.0527 C   0  0  0  0  0  0  0  0  0  0  0  0
    4.7219    0.5218    0.8798 C   0  0  0  0  0  0  0  0  0  0  0  0
    4.6095   -0.8157    0.6946 C   0  0  0  0  0  0  0  0  0  0  0  0
    3.3506   -1.0580    0.1407 N   0  0  0  0  0  0  0  0  0  0  0  0
    2.8582   -2.3616   -0.1506 C   0  0  0  0  0  0  0  0  0  0  0  0
    3.0725   -3.3958    0.7710 C   0  0  0  0  0  0  0  0  0  0  0  0
    2.6399   -4.6937    0.4920 C   0  0  0  0  0  0  0  0  0  0  0  0
    1.9771   -4.9508   -0.7101 C   0  0  0  0  0  0  0  0  0  0  0  0
    1.3752   -6.7180   -1.0954 Br  0  0  0  0  0  0  0  0  0  0  0  0
    1.7484   -3.9244   -1.6315 C   0  0  0  0  0  0  0  0  0  0  0  0
    2.1913   -2.6309   -1.3538 C   0  0  0  0  0  0  0  0  0  0  0  0
    3.8329    2.9955    1.2617 H   0  0  0  0  0  0  0  0  0  0  0  0
    2.1748    2.6356    0.7118 H   0  0  0  0  0  0  0  0  0  0  0  0
    2.9695    2.6453   -1.6653 H   0  0  0  0  0  0  0  0  0  0  0  0
    4.5953    3.1237   -1.1276 H   0  0  0  0  0  0  0  0  0  0  0  0
    5.0818    5.4548   -0.6198 H   0  0  0  0  0  0  0  0  0  0  0  0
    4.3464    7.8259   -0.5816 H   0  0  0  0  0  0  0  0  0  0  0  0
    1.9304    8.3925   -0.8474 H   0  0  0  0  0  0  0  0  0  0  0  0
    0.2596    6.5631   -1.1538 H   0  0  0  0  0  0  0  0  0  0  0  0
    1.0002    4.1900   -1.1912 H   0  0  0  0  0  0  0  0  0  0  0  0
    5.5467    1.1106    1.2711 H   0  0  0  0  0  0  0  0  0  0  0  0
    5.3201   -1.6165    0.8722 H   0  0  0  0  0  0  0  0  0  0  0  0
    3.5660   -3.1861    1.7221 H   0  0  0  0  0  0  0  0  0  0  0  0
    2.8068   -5.4956    1.2127 H   0  0  0  0  0  0  0  0  0  0  0  0
    1.2303   -4.1337   -2.5686 H   0  0  0  0  0  0  0  0  0  0  0  0
    2.0111   -1.8254   -2.0643 H   0  0  0  0  0  0  0  0  0  0  0  0
  1  2  2  0
  2  3  1  0
  2 14  1  0
  3  4  1  0
  3 12  1  0
  4  5  1  0
  4 22  1  0
  4 23  1  0
  5  6  1  0
  5 24  1  0
  5 25  1  0
  6  7  2  0
  6 11  1  0
  7  8  1  0
  7 26  1  0
  8  9  2  0
  8 27  1  0
  9 10  1  0
  9 28  1  0
 10 11  2  0
 10 29  1  0
 11 30  1  0
 12 13  2  0
 12 31  1  0
 13 14  1  0
 13 32  1  0
 14 15  1  0
 15 16  2  0
 15 21  1  0
 16 17  1  0
 16 33  1  0
 17 18  2  0
 17 34  1  0
 18 19  1  0
 18 20  1  0
 20 21  2  0
 20 35  1  0
 21 36  1  0
M  END

