
     RDKit          3D

 29 30  0  0  0  0  0  0  0  0999 V2000
    0.7234   -0.2319    0.3484 O   0  0  0  0  0  0  0  0  0  0  0  0
    2.1720   -0.0194    0.3730 S   0  0  1  0  0  0  0  0  0  0  0  0
    2.7960    0.6195    1.5278 O   0  0  0  0  0  0  0  0  0  0  0  0
    2.8590   -1.5508    0.0777 N   0  0  0  0  0  0  0  0  0  0  0  0
    2.5877   -2.6826    0.8654 C   0  0  0  0  0  0  0  0  0  0  0  0
    1.3098   -3.0077    1.3639 C   0  0  0  0  0  0  0  0  0  0  0  0
    1.2209   -4.1889    2.0777 C   0  0  0  0  0  0  0  0  0  0  0  0
    2.3837   -4.9598    2.2290 C   0  0  0  0  0  0  0  0  0  0  0  0
    3.5575   -4.5960    1.7190 N   0  0  0  0  0  0  0  0  0  0  0  0
    3.6602   -3.4598    1.0531 N   0  0  0  0  0  0  0  0  0  0  0  0
    2.7233    0.7477   -0.9936 N   0  0  0  0  0  0  0  0  0  0  0  0
    1.9846    0.5268   -2.2486 C   0  0  0  0  0  0  0  0  0  0  0  0
    1.0004    1.6670   -2.5123 C   0  0  0  0  0  0  0  0  0  0  0  0
    1.7170    2.9372   -2.4736 N   0  0  0  0  0  0  0  0  0  0  0  0
    2.3319    3.1846   -1.1751 C   0  0  0  0  0  0  0  0  0  0  0  0
    3.3435    2.0782   -0.8777 C   0  0  0  0  0  0  0  0  0  0  0  0
    3.8605   -1.4783   -0.1118 H   0  0  0  0  0  0  0  0  0  0  0  0
    0.4582   -2.3523    1.1863 H   0  0  0  0  0  0  0  0  0  0  0  0
    0.2714   -4.5196    2.5054 H   0  0  0  0  0  0  0  0  0  0  0  0
    2.3779   -5.9062    2.7778 H   0  0  0  0  0  0  0  0  0  0  0  0
    1.4691   -0.4412   -2.1981 H   0  0  0  0  0  0  0  0  0  0  0  0
    2.7282    0.4799   -3.0620 H   0  0  0  0  0  0  0  0  0  0  0  0
    0.1860    1.5995   -1.7585 H   0  0  0  0  0  0  0  0  0  0  0  0
    0.5491    1.5333   -3.5089 H   0  0  0  0  0  0  0  0  0  0  0  0
    1.1019    3.7049   -2.7334 H   0  0  0  0  0  0  0  0  0  0  0  0
    1.5952    3.2196   -0.3405 H   0  0  0  0  0  0  0  0  0  0  0  0
    2.8532    4.1555   -1.1970 H   0  0  0  0  0  0  0  0  0  0  0  0
    3.7731    2.1832    0.1258 H   0  0  0  0  0  0  0  0  0  0  0  0
    4.1601    2.1180   -1.6185 H   0  0  0  0  0  0  0  0  0  0  0  0
  1  2  2  0
  2  3  2  0
  2  4  1  6
  2 11  1  0
  4  5  1  0
  4 17  1  0
  5  6  2  0
  5 10  1  0
  6  7  1  0
  6 18  1  0
  7  8  2  0
  7 19  1  0
  8  9  1  0
  8 20  1  0
  9 10  2  0
 11 12  1  0
 11 16  1  0
 12 13  1  0
 12 21  1  0
 12 22  1  0
 13 14  1  0
 13 23  1  0
 13 24  1  0
 14 15  1  0
 14 25  1  0
 15 16  1  0
 15 26  1  0
 15 27  1  0
 16 28  1  0
 16 29  1  0
M  END

