
     RDKit          3D

 44 47  0  0  0  0  0  0  0  0999 V2000
    1.2984    1.1187   -0.0550 C   0  0  0  0  0  0  0  0  0  0  0  0
    2.3399    0.1113   -0.1405 N   0  0  0  0  0  0  0  0  0  0  0  0
    1.9547   -1.1359   -0.7847 C   0  0  0  0  0  0  0  0  0  0  0  0
    1.9592   -1.0591   -2.3195 C   0  0  0  0  0  0  0  0  0  0  0  0
    3.2444   -0.5506   -2.8210 N   0  0  0  0  0  0  0  0  0  0  0  0
    3.8068   -1.0404   -3.9566 C   0  0  0  0  0  0  0  0  0  0  0  0
    3.7438   -2.2978   -4.5275 C   0  0  0  0  0  0  0  0  0  0  0  0
    3.2850   -3.5836   -4.0179 C   0  0  0  0  0  0  0  0  0  0  0  0
    2.6816   -4.6081   -4.7229 C   0  0  0  0  0  0  0  0  0  0  0  0
    2.4713   -5.7857   -3.9494 C   0  0  0  0  0  0  0  0  0  0  0  0
    2.9276   -5.6650   -2.6611 C   0  0  0  0  0  0  0  0  0  0  0  0
    3.6354   -4.1138   -2.3777 S   0  0  0  0  0  0  0  0  0  0  0  0
    4.4004   -2.2365   -5.8538 C   0  0  0  0  0  0  0  0  0  0  0  0
    4.5323   -3.1169   -6.6708 O   0  0  0  0  0  0  0  0  0  0  0  0
    4.8880   -0.9048   -6.0302 N   0  0  0  0  0  0  0  0  0  0  0  0
    5.5831   -0.4355   -7.1761 C   0  0  0  0  0  0  0  0  0  0  0  0
    5.2457   -0.9045   -8.4557 C   0  0  0  0  0  0  0  0  0  0  0  0
    5.9404   -0.4401   -9.5696 C   0  0  0  0  0  0  0  0  0  0  0  0
    6.9652    0.5024   -9.4380 C   0  0  0  0  0  0  0  0  0  0  0  0
    7.7993    1.0656  -10.8572 Cl  0  0  0  0  0  0  0  0  0  0  0  0
    7.2970    0.9754   -8.1583 C   0  0  0  0  0  0  0  0  0  0  0  0
    8.5649    2.1481   -7.9357 Cl  0  0  0  0  0  0  0  0  0  0  0  0
    6.6150    0.5029   -7.0347 C   0  0  0  0  0  0  0  0  0  0  0  0
    4.5630   -0.1316   -4.9183 C   0  0  0  0  0  0  0  0  0  0  0  0
    4.8109    1.0451   -4.7791 O   0  0  0  0  0  0  0  0  0  0  0  0
    3.6568    0.7143   -2.1948 C   0  0  0  0  0  0  0  0  0  0  0  0
    3.6161    0.5728   -0.6628 C   0  0  0  0  0  0  0  0  0  0  0  0
    0.4210    0.6985    0.4626 H   0  0  0  0  0  0  0  0  0  0  0  0
    0.9437    1.5269   -1.0274 H   0  0  0  0  0  0  0  0  0  0  0  0
    1.6584    1.9705    0.5440 H   0  0  0  0  0  0  0  0  0  0  0  0
    0.9533   -1.4377   -0.4382 H   0  0  0  0  0  0  0  0  0  0  0  0
    2.6599   -1.9261   -0.4747 H   0  0  0  0  0  0  0  0  0  0  0  0
    1.1632   -0.3715   -2.6674 H   0  0  0  0  0  0  0  0  0  0  0  0
    1.7514   -2.0426   -2.7546 H   0  0  0  0  0  0  0  0  0  0  0  0
    2.4127   -4.5104   -5.7741 H   0  0  0  0  0  0  0  0  0  0  0  0
    1.9978   -6.6897   -4.3356 H   0  0  0  0  0  0  0  0  0  0  0  0
    2.8902   -6.4015   -1.8594 H   0  0  0  0  0  0  0  0  0  0  0  0
    4.4565   -1.6432   -8.5784 H   0  0  0  0  0  0  0  0  0  0  0  0
    5.6864   -0.8049  -10.5661 H   0  0  0  0  0  0  0  0  0  0  0  0
    6.8876    0.8879   -6.0549 H   0  0  0  0  0  0  0  0  0  0  0  0
    2.9898    1.5316   -2.5280 H   0  0  0  0  0  0  0  0  0  0  0  0
    4.6659    0.9776   -2.5246 H   0  0  0  0  0  0  0  0  0  0  0  0
    3.8725    1.5427   -0.2070 H   0  0  0  0  0  0  0  0  0  0  0  0
    4.3980   -0.1478   -0.3611 H   0  0  0  0  0  0  0  0  0  0  0  0
  1  2  1  0
  1 28  1  0
  1 29  1  0
  1 30  1  0
  2  3  1  0
  2 27  1  0
  3  4  1  0
  3 31  1  0
  3 32  1  0
  4  5  1  0
  4 33  1  0
  4 34  1  0
  5  6  1  0
  5 26  1  0
  6  7  1  0
  6 24  2  0
  7  8  2  0
  7 13  1  0
  8  9  1  0
  8 12  1  0
  9 10  2  0
  9 35  1  0
 10 11  1  0
 10 36  1  0
 11 12  2  0
 11 37  1  0
 13 14  2  0
 13 15  1  0
 15 16  1  0
 15 24  1  0
 16 17  2  0
 16 23  1  0
 17 18  1  0
 17 38  1  0
 18 19  2  0
 18 39  1  0
 19 20  1  0
 19 21  1  0
 21 22  1  0
 21 23  2  0
 23 40  1  0
 24 25  1  0
 26 27  1  0
 26 41  1  0
 26 42  1  0
 27 43  1  0
 27 44  1  0
M  CHG  2  12   1  25  -1
M  END

