
     RDKit          3D

 43 44  0  0  0  0  0  0  0  0999 V2000
    3.0907    2.5918    0.8125 C   0  0  0  0  0  0  0  0  0  0  0  0
    2.6296    1.1907    0.4117 C   0  0  0  0  0  0  0  0  0  0  0  0
    3.0332    0.7797   -1.0109 C   0  0  0  0  0  0  0  0  0  0  0  0
    4.4713    0.7170   -1.2137 N   0  0  0  0  0  0  0  0  0  0  0  0
    5.1353    1.5588   -2.0533 C   0  0  0  0  0  0  0  0  0  0  0  0
    4.5735    2.4594   -2.6624 O   0  0  0  0  0  0  0  0  0  0  0  0
    6.6411    1.3986   -2.1794 C   0  0  0  0  0  0  0  0  0  0  0  0
    7.3140    2.5462   -2.6420 C   0  0  0  0  0  0  0  0  0  0  0  0
    8.6889    2.6121   -2.8295 C   0  0  0  0  0  0  0  0  0  0  0  0
    9.4718    1.4726   -2.5671 C   0  0  0  0  0  0  0  0  0  0  0  0
   10.8620    1.4207   -2.7335 N   0  0  0  0  0  0  0  0  0  0  0  0
   11.7279    2.4323   -3.1112 C   0  0  0  0  0  0  0  0  0  0  0  0
   11.3724    3.5812   -3.3076 O   0  0  0  0  0  0  0  0  0  0  0  0
   13.1663    2.0200   -3.2484 C   0  0  0  0  0  0  0  0  0  0  0  0
   13.6018    0.7039   -3.4459 C   0  0  0  0  0  0  0  0  0  0  0  0
   14.9618    0.4065   -3.5895 C   0  0  0  0  0  0  0  0  0  0  0  0
   15.9209    1.4275   -3.5397 C   0  0  0  0  0  0  0  0  0  0  0  0
   17.2512    1.2641   -3.6604 O   0  0  0  0  0  0  0  0  0  0  0  0
   17.7735   -0.0342   -3.8542 C   0  0  0  0  0  0  0  0  0  0  0  0
   15.4673    2.7541   -3.3540 C   0  0  0  0  0  0  0  0  0  0  0  0
   16.3776    3.7306   -3.3135 F   0  0  0  0  0  0  0  0  0  0  0  0
   14.1255    3.0504   -3.2202 C   0  0  0  0  0  0  0  0  0  0  0  0
    8.8304    0.3037   -2.1242 C   0  0  0  0  0  0  0  0  0  0  0  0
    7.4493    0.2723   -1.9335 C   0  0  0  0  0  0  0  0  0  0  0  0
    6.8083   -1.2882   -1.4068 Cl  0  0  0  0  0  0  0  0  0  0  0  0
    2.7606    2.8432    1.8329 H   0  0  0  0  0  0  0  0  0  0  0  0
    2.6900    3.3558    0.1269 H   0  0  0  0  0  0  0  0  0  0  0  0
    4.1891    2.6726    0.7875 H   0  0  0  0  0  0  0  0  0  0  0  0
    1.5293    1.1215    0.4784 H   0  0  0  0  0  0  0  0  0  0  0  0
    3.0207    0.4466    1.1305 H   0  0  0  0  0  0  0  0  0  0  0  0
    2.6457    1.5027   -1.7425 H   0  0  0  0  0  0  0  0  0  0  0  0
    2.5919   -0.2049   -1.2489 H   0  0  0  0  0  0  0  0  0  0  0  0
    4.9898   -0.0189   -0.7503 H   0  0  0  0  0  0  0  0  0  0  0  0
    6.6916    3.4153   -2.8618 H   0  0  0  0  0  0  0  0  0  0  0  0
    9.1663    3.5260   -3.1726 H   0  0  0  0  0  0  0  0  0  0  0  0
   11.2911    0.5405   -2.4771 H   0  0  0  0  0  0  0  0  0  0  0  0
   12.8877   -0.1190   -3.5301 H   0  0  0  0  0  0  0  0  0  0  0  0
   15.2681   -0.6267   -3.7524 H   0  0  0  0  0  0  0  0  0  0  0  0
   18.8635    0.0771   -3.9203 H   0  0  0  0  0  0  0  0  0  0  0  0
   17.4008   -0.4880   -4.7895 H   0  0  0  0  0  0  0  0  0  0  0  0
   17.5303   -0.7017   -3.0085 H   0  0  0  0  0  0  0  0  0  0  0  0
   13.8060    4.0858   -3.0940 H   0  0  0  0  0  0  0  0  0  0  0  0
    9.4074   -0.6027   -1.9287 H   0  0  0  0  0  0  0  0  0  0  0  0
  1  2  1  0
  1 26  1  0
  1 27  1  0
  1 28  1  0
  2  3  1  0
  2 29  1  0
  2 30  1  0
  3  4  1  0
  3 31  1  0
  3 32  1  0
  4  5  1  0
  4 33  1  0
  5  6  2  0
  5  7  1  0
  7  8  2  0
  7 24  1  0
  8  9  1  0
  8 34  1  0
  9 10  2  0
  9 35  1  0
 10 11  1  0
 10 23  1  0
 11 12  1  0
 11 36  1  0
 12 13  2  0
 12 14  1  0
 14 15  2  0
 14 22  1  0
 15 16  1  0
 15 37  1  0
 16 17  2  0
 16 38  1  0
 17 18  1  0
 17 20  1  0
 18 19  1  0
 19 39  1  0
 19 40  1  0
 19 41  1  0
 20 21  1  0
 20 22  2  0
 22 42  1  0
 23 24  2  0
 23 43  1  0
 24 25  1  0
M  END

