
     RDKit          3D

 39 41  0  0  0  0  0  0  0  0999 V2000
    2.2835   -2.3911    0.4350 O   0  0  0  0  0  0  0  0  0  0  0  0
    2.1761   -1.2157    0.7293 C   0  0  0  0  0  0  0  0  0  0  0  0
    0.7670   -0.6091    0.6830 C   0  0  0  0  0  0  0  0  0  0  0  0
    0.6024    1.1320    1.1345 Cl  0  0  0  0  0  0  0  0  0  0  0  0
    3.1876   -0.3771    1.0969 N   0  0  0  0  0  0  0  0  0  0  0  0
    4.5601   -0.6496    1.2205 C   0  0  0  0  0  0  0  0  0  0  0  0
    5.1144   -1.9251    0.9704 C   0  0  0  0  0  0  0  0  0  0  0  0
    6.4816   -2.0959    1.1202 C   0  0  0  0  0  0  0  0  0  0  0  0
    7.3426   -1.0505    1.5119 C   0  0  0  0  0  0  0  0  0  0  0  0
    8.7751   -1.2364    1.6685 C   0  0  0  0  0  0  0  0  0  0  0  0
    9.5893   -0.2740    2.0287 N   0  0  0  0  0  0  0  0  0  0  0  0
   10.9028   -0.6844    2.1108 C   0  0  0  0  0  0  0  0  0  0  0  0
   11.9841    0.1349    2.4726 C   0  0  0  0  0  0  0  0  0  0  0  0
   13.2647   -0.4276    2.5116 C   0  0  0  0  0  0  0  0  0  0  0  0
   14.4135    0.3090    2.8621 N   0  0  0  0  0  0  0  0  0  0  0  0
   14.5065    1.6224    3.2113 C   0  0  0  0  0  0  0  0  0  0  0  0
   13.5855    2.4149    3.2837 O   0  0  0  0  0  0  0  0  0  0  0  0
   15.9094    2.1464    3.5459 C   0  0  0  0  0  0  0  0  0  0  0  0
   17.2765    0.9697    3.4327 Cl  0  0  0  0  0  0  0  0  0  0  0  0
   13.4550   -1.7938    2.1911 C   0  0  0  0  0  0  0  0  0  0  0  0
   12.3870   -2.6090    1.8320 C   0  0  0  0  0  0  0  0  0  0  0  0
   11.1064   -2.0504    1.7923 C   0  0  0  0  0  0  0  0  0  0  0  0
    9.5765   -2.7963    1.3851 S   0  0  0  0  0  0  0  0  0  0  0  0
    6.7712    0.2358    1.7616 C   0  0  0  0  0  0  0  0  0  0  0  0
    7.4997    1.2856    2.1345 O   0  0  0  0  0  0  0  0  0  0  0  0
    5.3878    0.4088    1.6101 C   0  0  0  0  0  0  0  0  0  0  0  0
    0.1291   -1.1926    1.3599 H   0  0  0  0  0  0  0  0  0  0  0  0
    0.3844   -0.7273   -0.3395 H   0  0  0  0  0  0  0  0  0  0  0  0
    2.9037    0.5759    1.3080 H   0  0  0  0  0  0  0  0  0  0  0  0
    4.4702   -2.7456    0.6670 H   0  0  0  0  0  0  0  0  0  0  0  0
    6.9053   -3.0849    0.9253 H   0  0  0  0  0  0  0  0  0  0  0  0
   11.8298    1.1826    2.7173 H   0  0  0  0  0  0  0  0  0  0  0  0
   15.2922   -0.2012    2.8553 H   0  0  0  0  0  0  0  0  0  0  0  0
   15.8874    2.5349    4.5726 H   0  0  0  0  0  0  0  0  0  0  0  0
   16.1282    2.9799    2.8655 H   0  0  0  0  0  0  0  0  0  0  0  0
   14.4627   -2.2166    2.2266 H   0  0  0  0  0  0  0  0  0  0  0  0
   12.5560   -3.6598    1.5884 H   0  0  0  0  0  0  0  0  0  0  0  0
    8.4519    0.9955    2.1929 H   0  0  0  0  0  0  0  0  0  0  0  0
    4.9803    1.4029    1.8080 H   0  0  0  0  0  0  0  0  0  0  0  0
  1  2  2  0
  2  3  1  0
  2  5  1  0
  3  4  1  0
  3 27  1  0
  3 28  1  0
  5  6  1  0
  5 29  1  0
  6  7  2  0
  6 26  1  0
  7  8  1  0
  7 30  1  0
  8  9  2  0
  8 31  1  0
  9 10  1  0
  9 24  1  0
 10 11  2  0
 10 23  1  0
 11 12  1  0
 12 13  2  0
 12 22  1  0
 13 14  1  0
 13 32  1  0
 14 15  1  0
 14 20  2  0
 15 16  1  0
 15 33  1  0
 16 17  2  0
 16 18  1  0
 18 19  1  0
 18 34  1  0
 18 35  1  0
 20 21  1  0
 20 36  1  0
 21 22  2  0
 21 37  1  0
 22 23  1  0
 24 25  1  0
 24 26  2  0
 25 38  1  0
 26 39  1  0
M  END

