
     RDKit          3D

 29 30  0  0  0  0  0  0  0  0999 V2000
    2.3116   -1.3126    0.4749 C   0  0  0  0  0  0  0  0  0  0  0  0
    2.5629   -0.0754   -0.1602 O   0  0  0  0  0  0  0  0  0  0  0  0
    2.9814   -0.0530   -1.4426 C   0  0  0  0  0  0  0  0  0  0  0  0
    3.1999    1.2243   -1.9972 C   0  0  0  0  0  0  0  0  0  0  0  0
    3.6322    1.3573   -3.3091 C   0  0  0  0  0  0  0  0  0  0  0  0
    3.8511    0.2046   -4.0766 C   0  0  0  0  0  0  0  0  0  0  0  0
    4.3689    0.3529   -5.7717 S   0  0  1  0  0  0  0  0  0  0  0  0
    3.9900   -0.8634   -6.4915 O   0  0  0  0  0  0  0  0  0  0  0  0
    4.0217    1.6815   -6.2588 O   0  0  0  0  0  0  0  0  0  0  0  0
    6.0817    0.1983   -5.7239 N   0  0  0  0  0  0  0  0  0  0  0  0
    6.9841    1.1740   -5.3613 C   0  0  0  0  0  0  0  0  0  0  0  0
    6.5825    2.1971   -4.6146 N   0  0  0  0  0  0  0  0  0  0  0  0
    7.4852    3.1196   -4.2681 C   0  0  0  0  0  0  0  0  0  0  0  0
    8.8186    3.0248   -4.6564 C   0  0  0  0  0  0  0  0  0  0  0  0
    9.2346    1.9878   -5.3994 N   0  0  0  0  0  0  0  0  0  0  0  0
    8.3562    1.0896   -5.7471 C   0  0  0  0  0  0  0  0  0  0  0  0
    8.8853   -0.2764   -6.7214 Cl  0  0  0  0  0  0  0  0  0  0  0  0
    3.6292   -1.0674   -3.5463 C   0  0  0  0  0  0  0  0  0  0  0  0
    3.1968   -1.2015   -2.2260 C   0  0  0  0  0  0  0  0  0  0  0  0
    1.9879   -1.0765    1.4970 H   0  0  0  0  0  0  0  0  0  0  0  0
    3.2194   -1.9397    0.5217 H   0  0  0  0  0  0  0  0  0  0  0  0
    1.5105   -1.8774   -0.0337 H   0  0  0  0  0  0  0  0  0  0  0  0
    3.0164    2.0983   -1.3696 H   0  0  0  0  0  0  0  0  0  0  0  0
    3.8060    2.3387   -3.7505 H   0  0  0  0  0  0  0  0  0  0  0  0
    6.4099   -0.5589   -6.3193 H   0  0  0  0  0  0  0  0  0  0  0  0
    7.1324    3.9574   -3.6576 H   0  0  0  0  0  0  0  0  0  0  0  0
    9.5594    3.7784   -4.3743 H   0  0  0  0  0  0  0  0  0  0  0  0
    3.7799   -1.9495   -4.1712 H   0  0  0  0  0  0  0  0  0  0  0  0
    3.0225   -2.1988   -1.8229 H   0  0  0  0  0  0  0  0  0  0  0  0
  1  2  1  0
  1 20  1  0
  1 21  1  0
  1 22  1  0
  2  3  1  0
  3  4  2  0
  3 19  1  0
  4  5  1  0
  4 23  1  0
  5  6  2  0
  5 24  1  0
  6  7  1  0
  6 18  1  0
  7  8  2  0
  7  9  2  0
  7 10  1  1
 10 11  1  0
 10 25  1  0
 11 12  2  0
 11 16  1  0
 12 13  1  0
 13 14  2  0
 13 26  1  0
 14 15  1  0
 14 27  1  0
 15 16  2  0
 16 17  1  0
 18 19  2  0
 18 28  1  0
 19 29  1  0
M  END

