
     RDKit          3D

 62 64  0  0  0  0  0  0  0  0999 V2000
    6.9049    3.5782   -6.3489 C   0  0  0  0  0  0  0  0  0  0  0  0
    5.7261    3.7602   -5.3920 C   0  0  0  0  0  0  0  0  0  0  0  0
    6.0874    4.4782   -4.1733 N   0  0  0  0  0  0  0  0  0  0  0  0
    5.0016    5.2039   -3.5235 C   0  0  0  0  0  0  0  0  0  0  0  0
    4.0725    4.3191   -2.6681 C   0  0  0  0  0  0  0  0  0  0  0  0
    4.8649    3.4938   -1.6398 C   0  0  2  0  0  0  0  0  0  0  0  0
    5.3413    4.3474   -0.5567 N   0  0  0  0  0  0  0  0  0  0  0  0
    5.5653    3.8852    0.6989 C   0  0  0  0  0  0  0  0  0  0  0  0
    5.4052    2.7260    1.0499 O   0  0  0  0  0  0  0  0  0  0  0  0
    6.0979    4.9464    1.6776 C   0  0  0  0  0  0  0  0  0  0  0  0
    5.8798    6.3186    1.2440 N   0  0  0  0  0  0  0  0  0  0  0  0
    4.5464    6.8517    1.5574 C   0  0  0  0  0  0  0  0  0  0  0  0
    4.3896    7.2976    3.0221 C   0  0  0  0  0  0  0  0  0  0  0  0
    5.5076    8.2518    3.4990 C   0  0  2  0  0  0  0  0  0  0  0  0
    5.3067    9.6772    2.9583 C   0  0  0  0  0  0  0  0  0  0  0  0
    4.6531    9.8757    1.9403 O   0  0  0  0  0  0  0  0  0  0  0  0
    5.8988   10.7209    3.6363 N   0  0  0  0  0  0  0  0  0  0  0  0
    6.6594   10.6416    4.8805 C   0  0  0  0  0  0  0  0  0  0  0  0
    8.0234   11.3337    4.7475 C   0  0  0  0  0  0  0  0  0  0  0  0
    7.8733   12.7727    4.2409 C   0  0  0  0  0  0  0  0  0  0  0  0
    7.0408   12.8077    2.9539 C   0  0  0  0  0  0  0  0  0  0  0  0
    5.7033   12.0858    3.1420 C   0  0  0  0  0  0  0  0  0  0  0  0
    6.8919    7.6825    3.0904 C   0  0  0  0  0  0  0  0  0  0  0  0
    6.9225    7.2763    1.6074 C   0  0  0  0  0  0  0  0  0  0  0  0
    6.0217    2.7538   -2.3458 C   0  0  0  0  0  0  0  0  0  0  0  0
    6.8673    3.7152   -3.1973 C   0  0  0  0  0  0  0  0  0  0  0  0
    6.5735    3.0933   -7.2815 H   0  0  0  0  0  0  0  0  0  0  0  0
    7.6960    2.9452   -5.9162 H   0  0  0  0  0  0  0  0  0  0  0  0
    7.3523    4.5532   -6.5974 H   0  0  0  0  0  0  0  0  0  0  0  0
    5.2618    2.7671   -5.1969 H   0  0  0  0  0  0  0  0  0  0  0  0
    4.9506    4.3548   -5.9030 H   0  0  0  0  0  0  0  0  0  0  0  0
    4.4178    5.7382   -4.2903 H   0  0  0  0  0  0  0  0  0  0  0  0
    5.4502    5.9896   -2.8851 H   0  0  0  0  0  0  0  0  0  0  0  0
    3.5251    3.6223   -3.3252 H   0  0  0  0  0  0  0  0  0  0  0  0
    3.3146    4.9366   -2.1567 H   0  0  0  0  0  0  0  0  0  0  0  0
    4.2114    2.7439   -1.1674 H   0  0  0  0  0  0  0  0  0  0  0  0
    5.5278    5.3393   -0.6880 H   0  0  0  0  0  0  0  0  0  0  0  0
    7.1819    4.7596    1.7623 H   0  0  0  0  0  0  0  0  0  0  0  0
    5.6690    4.6906    2.6658 H   0  0  0  0  0  0  0  0  0  0  0  0
    3.7952    6.0836    1.3142 H   0  0  0  0  0  0  0  0  0  0  0  0
    4.3583    7.7176    0.9070 H   0  0  0  0  0  0  0  0  0  0  0  0
    4.4023    6.4124    3.6814 H   0  0  0  0  0  0  0  0  0  0  0  0
    3.4054    7.7740    3.1513 H   0  0  0  0  0  0  0  0  0  0  0  0
    5.4598    8.2901    4.5982 H   0  0  0  0  0  0  0  0  0  0  0  0
    6.7950    9.5972    5.1803 H   0  0  0  0  0  0  0  0  0  0  0  0
    6.0803   11.1346    5.6874 H   0  0  0  0  0  0  0  0  0  0  0  0
    8.6487   10.7564    4.0435 H   0  0  0  0  0  0  0  0  0  0  0  0
    8.5358   11.3124    5.7239 H   0  0  0  0  0  0  0  0  0  0  0  0
    8.8633   13.2301    4.0801 H   0  0  0  0  0  0  0  0  0  0  0  0
    7.3709   13.3801    5.0166 H   0  0  0  0  0  0  0  0  0  0  0  0
    7.5985   12.3204    2.1347 H   0  0  0  0  0  0  0  0  0  0  0  0
    6.8525   13.8473    2.6382 H   0  0  0  0  0  0  0  0  0  0  0  0
    5.1392   12.0171    2.2048 H   0  0  0  0  0  0  0  0  0  0  0  0
    5.0817   12.6424    3.8713 H   0  0  0  0  0  0  0  0  0  0  0  0
    7.1067    6.7983    3.7157 H   0  0  0  0  0  0  0  0  0  0  0  0
    7.6954    8.4101    3.2918 H   0  0  0  0  0  0  0  0  0  0  0  0
    7.9061    6.8497    1.3516 H   0  0  0  0  0  0  0  0  0  0  0  0
    6.7912    8.1748    0.9799 H   0  0  0  0  0  0  0  0  0  0  0  0
    5.5922    1.9620   -2.9841 H   0  0  0  0  0  0  0  0  0  0  0  0
    6.6430    2.2462   -1.5910 H   0  0  0  0  0  0  0  0  0  0  0  0
    7.6673    3.1669   -3.7178 H   0  0  0  0  0  0  0  0  0  0  0  0
    7.3759    4.4337   -2.5281 H   0  0  0  0  0  0  0  0  0  0  0  0
  1  2  1  0
  1 27  1  0
  1 28  1  0
  1 29  1  0
  2  3  1  0
  2 30  1  0
  2 31  1  0
  3  4  1  0
  3 26  1  0
  4  5  1  0
  4 32  1  0
  4 33  1  0
  5  6  1  0
  5 34  1  0
  5 35  1  0
  6  7  1  0
  6 25  1  0
  6 36  1  1
  7  8  1  0
  7 37  1  0
  8  9  2  0
  8 10  1  0
 10 11  1  0
 10 38  1  0
 10 39  1  0
 11 12  1  0
 11 24  1  0
 12 13  1  0
 12 40  1  0
 12 41  1  0
 13 14  1  0
 13 42  1  0
 13 43  1  0
 14 15  1  0
 14 23  1  0
 14 44  1  1
 15 16  2  0
 15 17  1  0
 17 18  1  0
 17 22  1  0
 18 19  1  0
 18 45  1  0
 18 46  1  0
 19 20  1  0
 19 47  1  0
 19 48  1  0
 20 21  1  0
 20 49  1  0
 20 50  1  0
 21 22  1  0
 21 51  1  0
 21 52  1  0
 22 53  1  0
 22 54  1  0
 23 24  1  0
 23 55  1  0
 23 56  1  0
 24 57  1  0
 24 58  1  0
 25 26  1  0
 25 59  1  0
 25 60  1  0
 26 61  1  0
 26 62  1  0
M  END

