
     RDKit          3D

 53 57  0  0  0  0  0  0  0  0999 V2000
    1.2262    0.0504    0.3456 C   0  0  0  0  0  0  0  0  0  0  0  0
    2.7062    0.0724    0.0549 C   0  0  0  0  0  0  0  0  0  0  0  0
    3.4187    1.2783   -0.0355 C   0  0  0  0  0  0  0  0  0  0  0  0
    4.7852    1.2960   -0.3117 C   0  0  0  0  0  0  0  0  0  0  0  0
    5.4941    0.0929   -0.5087 C   0  0  0  0  0  0  0  0  0  0  0  0
    6.8929    0.1011   -0.7915 C   0  0  0  0  0  0  0  0  0  0  0  0
    8.0891    0.1013   -1.0340 C   0  0  0  0  0  0  0  0  0  0  0  0
    9.4863    0.1116   -1.3171 C   0  0  0  0  0  0  0  0  0  0  0  0
   10.1983    1.3467   -1.4041 C   0  0  0  0  0  0  0  0  0  0  0  0
   11.5493    1.3785   -1.6771 C   0  0  0  0  0  0  0  0  0  0  0  0
   12.2793    0.1780   -1.8816 C   0  0  0  0  0  0  0  0  0  0  0  0
   13.6140    0.2455   -2.1499 N   0  0  0  0  0  0  0  0  0  0  0  0
   14.2808   -0.8636   -2.3377 C   0  0  0  0  0  0  0  0  0  0  0  0
   15.6908   -0.8327   -2.6233 C   0  0  0  0  0  0  0  0  0  0  0  0
   16.4115   -1.9694   -2.8240 C   0  0  0  0  0  0  0  0  0  0  0  0
   15.7691   -3.2623   -2.7545 C   0  0  0  0  0  0  0  0  0  0  0  0
   16.5047   -4.4638   -2.9617 C   0  0  0  0  0  0  0  0  0  0  0  0
   17.1542   -5.4805   -3.1427 C   0  0  0  0  0  0  0  0  0  0  0  0
   17.9031   -6.6772   -3.3527 C   0  0  0  0  0  0  0  0  0  0  0  0
   19.2846   -6.6297   -3.6306 C   0  0  0  0  0  0  0  0  0  0  0  0
   20.0074   -7.8043   -3.8346 C   0  0  0  0  0  0  0  0  0  0  0  0
   19.3902   -9.0633   -3.7707 C   0  0  0  0  0  0  0  0  0  0  0  0
   20.1705  -10.3359   -3.9863 C   0  0  0  0  0  0  0  0  0  0  0  0
   18.0118   -9.1057   -3.4938 C   0  0  0  0  0  0  0  0  0  0  0  0
   17.2774   -7.9422   -3.2880 C   0  0  0  0  0  0  0  0  0  0  0  0
   14.4226   -3.2926   -2.4815 C   0  0  0  0  0  0  0  0  0  0  0  0
   13.6907   -2.1431   -2.2779 N   0  0  0  0  0  0  0  0  0  0  0  0
   12.2807   -2.3106   -1.9985 C   0  0  0  0  0  0  0  0  0  0  0  0
   11.8043   -3.4278   -1.9540 O   0  0  0  0  0  0  0  0  0  0  0  0
   11.5727   -1.0542   -1.7956 C   0  0  0  0  0  0  0  0  0  0  0  0
   10.1946   -1.0777   -1.5166 C   0  0  0  0  0  0  0  0  0  0  0  0
    4.7803   -1.1232   -0.4175 C   0  0  0  0  0  0  0  0  0  0  0  0
    3.4167   -1.1256   -0.1412 C   0  0  0  0  0  0  0  0  0  0  0  0
    0.8370    1.0595    0.5458 H   0  0  0  0  0  0  0  0  0  0  0  0
    0.9986   -0.5802    1.2211 H   0  0  0  0  0  0  0  0  0  0  0  0
    0.6585   -0.3656   -0.5043 H   0  0  0  0  0  0  0  0  0  0  0  0
    2.8920    2.2251    0.1140 H   0  0  0  0  0  0  0  0  0  0  0  0
    5.3188    2.2465   -0.3768 H   0  0  0  0  0  0  0  0  0  0  0  0
    9.6498    2.2783   -1.2491 H   0  0  0  0  0  0  0  0  0  0  0  0
   12.0953    2.3213   -1.7440 H   0  0  0  0  0  0  0  0  0  0  0  0
   16.1389    0.1601   -2.6676 H   0  0  0  0  0  0  0  0  0  0  0  0
   17.4805   -1.9227   -3.0395 H   0  0  0  0  0  0  0  0  0  0  0  0
   19.7862   -5.6613   -3.6854 H   0  0  0  0  0  0  0  0  0  0  0  0
   21.0780   -7.7418   -4.0491 H   0  0  0  0  0  0  0  0  0  0  0  0
   21.2215  -10.1303   -4.2368 H   0  0  0  0  0  0  0  0  0  0  0  0
   19.7387  -10.9364   -4.8043 H   0  0  0  0  0  0  0  0  0  0  0  0
   20.1576  -10.9696   -3.0833 H   0  0  0  0  0  0  0  0  0  0  0  0
   17.5045  -10.0735   -3.4390 H   0  0  0  0  0  0  0  0  0  0  0  0
   16.2079   -7.9979   -3.0745 H   0  0  0  0  0  0  0  0  0  0  0  0
   13.8380   -4.2081   -2.4057 H   0  0  0  0  0  0  0  0  0  0  0  0
    9.6911   -2.0436   -1.4594 H   0  0  0  0  0  0  0  0  0  0  0  0
    5.3127   -2.0650   -0.5660 H   0  0  0  0  0  0  0  0  0  0  0  0
    2.8873   -2.0808   -0.0751 H   0  0  0  0  0  0  0  0  0  0  0  0
  1  2  1  0
  1 34  1  0
  1 35  1  0
  1 36  1  0
  2  3  2  0
  2 33  1  0
  3  4  1  0
  3 37  1  0
  4  5  2  0
  4 38  1  0
  5  6  1  0
  5 32  1  0
  6  7  3  0
  7  8  1  0
  8  9  2  0
  8 31  1  0
  9 10  1  0
  9 39  1  0
 10 11  2  0
 10 40  1  0
 11 12  1  0
 11 30  1  0
 12 13  2  0
 13 14  1  0
 13 27  1  0
 14 15  2  0
 14 41  1  0
 15 16  1  0
 15 42  1  0
 16 17  1  0
 16 26  2  0
 17 18  3  0
 18 19  1  0
 19 20  2  0
 19 25  1  0
 20 21  1  0
 20 43  1  0
 21 22  2  0
 21 44  1  0
 22 23  1  0
 22 24  1  0
 23 45  1  0
 23 46  1  0
 23 47  1  0
 24 25  2  0
 24 48  1  0
 25 49  1  0
 26 27  1  0
 26 50  1  0
 27 28  1  0
 28 29  2  0
 28 30  1  0
 30 31  2  0
 31 51  1  0
 32 33  2  0
 32 52  1  0
 33 53  1  0
M  END

