
     RDKit          3D

 53 53  0  0  0  0  0  0  0  0999 V2000
    0.8339    1.2854    4.1162 C   0  0  0  0  0  0  0  0  0  0  0  0
    2.3623    1.1861    4.1407 C   0  0  0  0  0  0  0  0  0  0  0  0
    2.9754   -0.2332    4.2913 C   0  0  1  0  0  0  0  0  0  0  0  0
    2.4493   -0.9154    5.5680 C   0  0  0  0  0  0  0  0  0  0  0  0
    2.6464   -1.1053    3.0660 C   0  0  0  0  0  0  0  0  0  0  0  0
    4.5141   -0.1087    4.4398 C   0  0  0  0  0  0  0  0  0  0  0  0
    5.1793    0.5215    3.3102 N   0  0  0  0  0  0  0  0  0  0  0  0
    6.6452    0.5167    3.3610 C   0  0  1  0  0  0  0  0  0  0  0  0
    7.2276   -0.8567    2.9790 C   0  0  0  0  0  0  0  0  0  0  0  0
    7.0092   -1.2182    1.5002 C   0  0  0  0  0  0  0  0  0  0  0  0
    7.4706   -0.1530    0.4695 C   0  0  2  0  0  0  0  0  0  0  0  0
    8.9794   -0.2466    0.0048 C   0  0  1  0  0  0  0  0  0  0  0  0
    9.3403    0.9870   -0.8482 C   0  0  0  0  0  0  0  0  0  0  0  0
    9.9885   -0.3416    1.1671 C   0  0  0  0  0  0  0  0  0  0  0  0
    9.0915   -1.5166   -0.8953 C   0  0  0  0  0  0  0  0  0  0  0  0
   10.4858   -1.9240   -1.3820 C   0  0  0  0  0  0  0  0  0  0  0  0
    6.9432    1.2315    0.9281 C   0  0  0  0  0  0  0  0  0  0  0  0
    7.2031    1.5794    2.4006 C   0  0  0  0  0  0  0  0  0  0  0  0
    0.5196    2.3316    3.9715 H   0  0  0  0  0  0  0  0  0  0  0  0
    0.3789    0.9371    5.0566 H   0  0  0  0  0  0  0  0  0  0  0  0
    0.3939    0.6979    3.2949 H   0  0  0  0  0  0  0  0  0  0  0  0
    2.7438    1.8148    4.9669 H   0  0  0  0  0  0  0  0  0  0  0  0
    2.7496    1.6340    3.2088 H   0  0  0  0  0  0  0  0  0  0  0  0
    1.3685   -1.1147    5.5084 H   0  0  0  0  0  0  0  0  0  0  0  0
    2.6287   -0.2942    6.4617 H   0  0  0  0  0  0  0  0  0  0  0  0
    2.9513   -1.8838    5.7286 H   0  0  0  0  0  0  0  0  0  0  0  0
    1.5602   -1.2344    2.9379 H   0  0  0  0  0  0  0  0  0  0  0  0
    3.0856   -2.1107    3.1757 H   0  0  0  0  0  0  0  0  0  0  0  0
    3.0585   -0.6615    2.1480 H   0  0  0  0  0  0  0  0  0  0  0  0
    4.9228   -1.1261    4.5562 H   0  0  0  0  0  0  0  0  0  0  0  0
    4.7329    0.4155    5.4001 H   0  0  0  0  0  0  0  0  0  0  0  0
    4.8618    1.4857    3.2281 H   0  0  0  0  0  0  0  0  0  0  0  0
    6.9978    0.7619    4.3887 H   0  0  0  0  0  0  0  0  0  0  0  0
    6.7838   -1.6446    3.6101 H   0  0  0  0  0  0  0  0  0  0  0  0
    8.2994   -0.8471    3.2295 H   0  0  0  0  0  0  0  0  0  0  0  0
    5.9270   -1.3670    1.3548 H   0  0  0  0  0  0  0  0  0  0  0  0
    7.4768   -2.1939    1.2921 H   0  0  0  0  0  0  0  0  0  0  0  0
    6.9134   -0.3711   -0.4587 H   0  0  0  0  0  0  0  0  0  0  0  0
    9.4006    1.9046   -0.2433 H   0  0  0  0  0  0  0  0  0  0  0  0
    8.5991    1.1573   -1.6469 H   0  0  0  0  0  0  0  0  0  0  0  0
   10.3224    0.8591   -1.3288 H   0  0  0  0  0  0  0  0  0  0  0  0
    9.8872    0.5009    1.8665 H   0  0  0  0  0  0  0  0  0  0  0  0
   11.0219   -0.3162    0.7870 H   0  0  0  0  0  0  0  0  0  0  0  0
    9.8756   -1.2750    1.7399 H   0  0  0  0  0  0  0  0  0  0  0  0
    8.4409   -1.3609   -1.7744 H   0  0  0  0  0  0  0  0  0  0  0  0
    8.6572   -2.3740   -0.3548 H   0  0  0  0  0  0  0  0  0  0  0  0
   10.9869   -1.1233   -1.9491 H   0  0  0  0  0  0  0  0  0  0  0  0
   10.4130   -2.7959   -2.0521 H   0  0  0  0  0  0  0  0  0  0  0  0
   11.1511   -2.2104   -0.5524 H   0  0  0  0  0  0  0  0  0  0  0  0
    5.8508    1.2189    0.7802 H   0  0  0  0  0  0  0  0  0  0  0  0
    7.3225    2.0357    0.2813 H   0  0  0  0  0  0  0  0  0  0  0  0
    6.7534    2.5617    2.6357 H   0  0  0  0  0  0  0  0  0  0  0  0
    8.2823    1.6921    2.5927 H   0  0  0  0  0  0  0  0  0  0  0  0
  1  2  1  0
  1 19  1  0
  1 20  1  0
  1 21  1  0
  3  2  1  6
  2 22  1  0
  2 23  1  0
  3  4  1  0
  3  5  1  0
  3  6  1  0
  4 24  1  0
  4 25  1  0
  4 26  1  0
  5 27  1  0
  5 28  1  0
  5 29  1  0
  6  7  1  0
  6 30  1  0
  6 31  1  0
  7  8  1  0
  7 32  1  0
  8  9  1  0
  8 18  1  0
  8 33  1  1
  9 10  1  0
  9 34  1  0
  9 35  1  0
 10 11  1  0
 10 36  1  0
 10 37  1  0
 11 12  1  0
 11 17  1  0
 11 38  1  6
 12 13  1  6
 12 14  1  0
 12 15  1  0
 13 39  1  0
 13 40  1  0
 13 41  1  0
 14 42  1  0
 14 43  1  0
 14 44  1  0
 15 16  1  0
 15 45  1  0
 15 46  1  0
 16 47  1  0
 16 48  1  0
 16 49  1  0
 17 18  1  0
 17 50  1  0
 17 51  1  0
 18 52  1  0
 18 53  1  0
M  END

