
     RDKit          3D

 81 84  0  0  0  0  0  0  0  0999 V2000
    5.2910   -1.6394   -0.7757 C   0  0  0  0  0  0  0  0  0  0  0  0
    6.0190   -1.6320    0.5719 C   0  0  0  0  0  0  0  0  0  0  0  0
    5.1239   -1.6201    1.8295 C   0  0  2  0  0  0  0  0  0  0  0  0
    5.7914   -1.5722    2.7090 H   0  0  0  0  0  0  0  0  0  0  0  0
    4.2848   -2.8982    1.9685 C   0  0  0  0  0  0  0  0  0  0  0  0
    4.2251   -0.3667    1.9073 C   0  0  2  0  0  0  0  0  0  0  0  0
    3.5102   -0.3597    1.0728 H   0  0  0  0  0  0  0  0  0  0  0  0
    4.9973    0.8641    1.7823 N   0  0  0  0  0  0  0  0  0  0  0  0
    4.5078    1.9712    1.1512 C   0  0  0  0  0  0  0  0  0  0  0  0
    3.4593    1.9634    0.5190 O   0  0  0  0  0  0  0  0  0  0  0  0
    5.3582    3.2317    1.2989 C   0  0  0  0  0  0  0  0  0  0  0  0
    5.2441    4.1313    0.0682 C   0  0  0  0  0  0  0  0  0  0  0  0
    6.1703    5.6741    0.3906 S   0  0  0  0  0  0  0  0  0  0  0  0
    5.7038    6.8490   -1.0344 C   0  0  1  0  0  0  0  0  0  0  0  0
    4.1815    7.1013   -1.0607 C   0  0  0  0  0  0  0  0  0  0  0  0
    3.4202    7.1072    0.1199 C   0  0  0  0  0  0  0  0  0  0  0  0
    2.0587    7.4198    0.1016 C   0  0  0  0  0  0  0  0  0  0  0  0
    1.4238    7.7447   -1.1001 C   0  0  0  0  0  0  0  0  0  0  0  0
    2.1698    7.7599   -2.2807 C   0  0  0  0  0  0  0  0  0  0  0  0
    3.5317    7.4429   -2.2604 C   0  0  0  0  0  0  0  0  0  0  0  0
    6.4522    8.1533   -0.6588 C   0  0  0  0  0  0  0  0  0  0  0  0
    7.7707    8.1190   -0.1627 C   0  0  0  0  0  0  0  0  0  0  0  0
    8.4556    9.2932    0.1577 C   0  0  0  0  0  0  0  0  0  0  0  0
    7.8438   10.5377   -0.0146 C   0  0  0  0  0  0  0  0  0  0  0  0
    6.5401   10.5895   -0.5097 C   0  0  0  0  0  0  0  0  0  0  0  0
    5.8524    9.4127   -0.8241 C   0  0  0  0  0  0  0  0  0  0  0  0
    6.2138    6.2328   -2.3546 C   0  0  0  0  0  0  0  0  0  0  0  0
    5.5072    5.1732   -2.9599 C   0  0  0  0  0  0  0  0  0  0  0  0
    5.9623    4.5709   -4.1341 C   0  0  0  0  0  0  0  0  0  0  0  0
    7.1364    5.0167   -4.7480 C   0  0  0  0  0  0  0  0  0  0  0  0
    7.8386    6.0769   -4.1737 C   0  0  0  0  0  0  0  0  0  0  0  0
    7.3824    6.6775   -2.9954 C   0  0  0  0  0  0  0  0  0  0  0  0
    3.4712   -0.3036    3.2501 C   0  0  0  0  0  0  0  0  0  0  0  0
    4.0850   -0.2586    4.3062 O   0  0  0  0  0  0  0  0  0  0  0  0
    2.1143   -0.2708    3.1518 N   0  0  0  0  0  0  0  0  0  0  0  0
    1.2425   -0.0310    4.2877 C   0  0  0  0  0  0  0  0  0  0  0  0
    0.5565    1.3505    4.2385 C   0  0  0  0  0  0  0  0  0  0  0  0
   -0.3799    1.5263    3.0609 C   0  0  0  0  0  0  0  0  0  0  0  0
   -1.7441    1.2104    3.1820 C   0  0  0  0  0  0  0  0  0  0  0  0
   -2.6113    1.3272    2.0927 C   0  0  0  0  0  0  0  0  0  0  0  0
   -2.1273    1.7615    0.8547 C   0  0  0  0  0  0  0  0  0  0  0  0
   -0.7731    2.0789    0.7185 C   0  0  0  0  0  0  0  0  0  0  0  0
    0.0936    1.9651    1.8110 C   0  0  0  0  0  0  0  0  0  0  0  0
    6.0152   -1.6799   -1.6049 H   0  0  0  0  0  0  0  0  0  0  0  0
    4.6820   -0.7326   -0.9219 H   0  0  0  0  0  0  0  0  0  0  0  0
    4.6256   -2.5110   -0.8838 H   0  0  0  0  0  0  0  0  0  0  0  0
    6.6920   -0.7596    0.6075 H   0  0  0  0  0  0  0  0  0  0  0  0
    6.6733   -2.5190    0.6381 H   0  0  0  0  0  0  0  0  0  0  0  0
    4.9258   -3.7909    1.8950 H   0  0  0  0  0  0  0  0  0  0  0  0
    3.5161   -2.9749    1.1819 H   0  0  0  0  0  0  0  0  0  0  0  0
    3.7721   -2.9412    2.9414 H   0  0  0  0  0  0  0  0  0  0  0  0
    5.7701    0.9782    2.4305 H   0  0  0  0  0  0  0  0  0  0  0  0
    6.4093    2.9681    1.5013 H   0  0  0  0  0  0  0  0  0  0  0  0
    4.9912    3.7698    2.1916 H   0  0  0  0  0  0  0  0  0  0  0  0
    4.1838    4.3501   -0.1222 H   0  0  0  0  0  0  0  0  0  0  0  0
    5.6550    3.6190   -0.8137 H   0  0  0  0  0  0  0  0  0  0  0  0
    3.9097    6.8618    1.0640 H   0  0  0  0  0  0  0  0  0  0  0  0
    1.4914    7.4085    1.0360 H   0  0  0  0  0  0  0  0  0  0  0  0
    0.3577    7.9852   -1.1158 H   0  0  0  0  0  0  0  0  0  0  0  0
    1.6925    8.0202   -3.2292 H   0  0  0  0  0  0  0  0  0  0  0  0
    4.0949    7.4712   -3.1942 H   0  0  0  0  0  0  0  0  0  0  0  0
    8.2707    7.1590   -0.0260 H   0  0  0  0  0  0  0  0  0  0  0  0
    9.4761    9.2309    0.5447 H   0  0  0  0  0  0  0  0  0  0  0  0
    8.3783   11.4573    0.2368 H   0  0  0  0  0  0  0  0  0  0  0  0
    6.0435   11.5532   -0.6501 H   0  0  0  0  0  0  0  0  0  0  0  0
    4.8329    9.4856   -1.2015 H   0  0  0  0  0  0  0  0  0  0  0  0
    4.5719    4.8249   -2.5217 H   0  0  0  0  0  0  0  0  0  0  0  0
    5.3882    3.7513   -4.5746 H   0  0  0  0  0  0  0  0  0  0  0  0
    7.4927    4.5485   -5.6691 H   0  0  0  0  0  0  0  0  0  0  0  0
    8.7508    6.4512   -4.6459 H   0  0  0  0  0  0  0  0  0  0  0  0
    7.9484    7.5106   -2.5810 H   0  0  0  0  0  0  0  0  0  0  0  0
    1.7059   -0.2191    2.2248 H   0  0  0  0  0  0  0  0  0  0  0  0
    1.8726   -0.1084    5.1848 H   0  0  0  0  0  0  0  0  0  0  0  0
    0.4759   -0.8234    4.3402 H   0  0  0  0  0  0  0  0  0  0  0  0
    1.3387    2.1269    4.2218 H   0  0  0  0  0  0  0  0  0  0  0  0
   -0.0041    1.4795    5.1790 H   0  0  0  0  0  0  0  0  0  0  0  0
   -2.1336    0.8746    4.1481 H   0  0  0  0  0  0  0  0  0  0  0  0
   -3.6700    1.0819    2.2124 H   0  0  0  0  0  0  0  0  0  0  0  0
   -2.8043    1.8558    0.0016 H   0  0  0  0  0  0  0  0  0  0  0  0
   -0.3817    2.4227   -0.2425 H   0  0  0  0  0  0  0  0  0  0  0  0
    1.1483    2.2215    1.6767 H   0  0  0  0  0  0  0  0  0  0  0  0
  1  2  1  0
  1 44  1  0
  1 45  1  0
  1 46  1  0
  2  3  1  0
  2 47  1  0
  2 48  1  0
  3  4  1  1
  3  5  1  0
  3  6  1  0
  5 49  1  0
  5 50  1  0
  5 51  1  0
  6  7  1  6
  6  8  1  0
  6 33  1  0
  8  9  1  0
  8 52  1  0
  9 10  2  0
  9 11  1  0
 11 12  1  0
 11 53  1  0
 11 54  1  0
 12 13  1  0
 12 55  1  0
 12 56  1  0
 14 13  1  1
 14 15  1  0
 14 21  1  0
 14 27  1  0
 15 16  2  0
 15 20  1  0
 16 17  1  0
 16 57  1  0
 17 18  2  0
 17 58  1  0
 18 19  1  0
 18 59  1  0
 19 20  2  0
 19 60  1  0
 20 61  1  0
 21 22  2  0
 21 26  1  0
 22 23  1  0
 22 62  1  0
 23 24  2  0
 23 63  1  0
 24 25  1  0
 24 64  1  0
 25 26  2  0
 25 65  1  0
 26 66  1  0
 27 28  2  0
 27 32  1  0
 28 29  1  0
 28 67  1  0
 29 30  2  0
 29 68  1  0
 30 31  1  0
 30 69  1  0
 31 32  2  0
 31 70  1  0
 32 71  1  0
 33 34  2  0
 33 35  1  0
 35 36  1  0
 35 72  1  0
 36 37  1  0
 36 73  1  0
 36 74  1  0
 37 38  1  0
 37 75  1  0
 37 76  1  0
 38 39  2  0
 38 43  1  0
 39 40  1  0
 39 77  1  0
 40 41  2  0
 40 78  1  0
 41 42  1  0
 41 79  1  0
 42 43  2  0
 42 80  1  0
 43 81  1  0
M  END

