
     RDKit          3D

 40 42  0  0  0  0  0  0  0  0999 V2000
    1.1700   -0.4134   -0.0016 C   0  0  0  0  0  0  0  0  0  0  0  0
    2.5783   -0.0660    0.0713 N   0  0  0  0  0  0  0  0  0  0  0  0
    2.8991    1.3522    0.0666 C   0  0  1  0  0  0  0  0  0  0  0  0
    2.2872    2.1120    1.2888 C   0  0  0  0  0  0  0  0  0  0  0  0
    2.6388    1.5926    2.6670 C   0  0  0  0  0  0  0  0  0  0  0  0
    1.9108    0.5490    3.0902 N   0  0  0  0  0  0  0  0  0  0  0  0
    2.1499    0.0163    4.2871 C   0  0  0  0  0  0  0  0  0  0  0  0
    3.1322    0.5043    5.1496 C   0  0  0  0  0  0  0  0  0  0  0  0
    3.8757    1.6064    4.7296 C   0  0  0  0  0  0  0  0  0  0  0  0
    3.6455    2.1822    3.4727 C   0  0  0  0  0  0  0  0  0  0  0  0
    4.4311    3.3964    3.0395 C   0  0  0  0  0  0  0  0  0  0  0  0
    4.4068    1.5403   -0.0390 C   0  0  0  0  0  0  0  0  0  0  0  0
    5.2914    0.6639    0.6161 C   0  0  0  0  0  0  0  0  0  0  0  0
    6.6769    0.8531    0.5552 C   0  0  0  0  0  0  0  0  0  0  0  0
    7.1809    1.9343   -0.1674 C   0  0  0  0  0  0  0  0  0  0  0  0
    6.3121    2.8065   -0.8281 C   0  0  0  0  0  0  0  0  0  0  0  0
    4.9322    2.6164   -0.7746 C   0  0  0  0  0  0  0  0  0  0  0  0
    7.1369    3.8467   -1.5439 C   0  0  0  0  0  0  0  0  0  0  0  0
    8.4763    3.6165   -1.1258 O   0  0  0  0  0  0  0  0  0  0  0  0
    8.5964    2.3821   -0.4293 C   0  0  0  0  0  0  0  0  0  0  0  0
    1.0760   -1.4948   -0.1861 H   0  0  0  0  0  0  0  0  0  0  0  0
    0.6121    0.1167   -0.8070 H   0  0  0  0  0  0  0  0  0  0  0  0
    0.6813   -0.2027    0.9608 H   0  0  0  0  0  0  0  0  0  0  0  0
    3.0925   -0.5165   -0.6834 H   0  0  0  0  0  0  0  0  0  0  0  0
    2.4498    1.8682   -0.8151 H   0  0  0  0  0  0  0  0  0  0  0  0
    1.1915    2.0687    1.1939 H   0  0  0  0  0  0  0  0  0  0  0  0
    2.5716    3.1686    1.1829 H   0  0  0  0  0  0  0  0  0  0  0  0
    1.5249   -0.8367    4.5783 H   0  0  0  0  0  0  0  0  0  0  0  0
    3.2999    0.0436    6.1259 H   0  0  0  0  0  0  0  0  0  0  0  0
    4.6431    2.0328    5.3827 H   0  0  0  0  0  0  0  0  0  0  0  0
    5.1494    3.6933    3.8178 H   0  0  0  0  0  0  0  0  0  0  0  0
    3.7707    4.2600    2.8523 H   0  0  0  0  0  0  0  0  0  0  0  0
    4.9951    3.2140    2.1126 H   0  0  0  0  0  0  0  0  0  0  0  0
    4.8724   -0.1755    1.1738 H   0  0  0  0  0  0  0  0  0  0  0  0
    7.3461    0.1589    1.0717 H   0  0  0  0  0  0  0  0  0  0  0  0
    4.2539    3.2957   -1.3008 H   0  0  0  0  0  0  0  0  0  0  0  0
    6.8468    4.8816   -1.2839 H   0  0  0  0  0  0  0  0  0  0  0  0
    7.0460    3.7498   -2.6462 H   0  0  0  0  0  0  0  0  0  0  0  0
    9.1772    2.5421    0.4981 H   0  0  0  0  0  0  0  0  0  0  0  0
    9.1529    1.6393   -1.0384 H   0  0  0  0  0  0  0  0  0  0  0  0
  1  2  1  0
  1 21  1  0
  1 22  1  0
  1 23  1  0
  2  3  1  0
  2 24  1  0
  3  4  1  0
  3 12  1  0
  3 25  1  6
  4  5  1  0
  4 26  1  0
  4 27  1  0
  5  6  2  0
  5 10  1  0
  6  7  1  0
  7  8  2  0
  7 28  1  0
  8  9  1  0
  8 29  1  0
  9 10  2  0
  9 30  1  0
 10 11  1  0
 11 31  1  0
 11 32  1  0
 11 33  1  0
 12 13  2  0
 12 17  1  0
 13 14  1  0
 13 34  1  0
 14 15  2  0
 14 35  1  0
 15 16  1  0
 15 20  1  0
 16 17  2  0
 16 18  1  0
 17 36  1  0
 18 19  1  0
 18 37  1  0
 18 38  1  0
 19 20  1  0
 20 39  1  0
 20 40  1  0
M  END

