
     RDKit          3D

 72 79  0  0  0  0  0  0  0  0999 V2000
    2.8067    0.0322    2.0599 C   0  0  0  0  0  0  0  0  0  0  0  0
    2.6658    1.1662    1.1618 N   0  0  0  0  0  0  0  0  0  0  0  0
    2.9190    0.7831   -0.2479 C   0  0  0  0  0  0  0  0  0  0  0  0
    3.4320    1.9144   -1.2023 C   0  0  0  0  0  0  0  0  0  0  0  0
    2.5729    3.1060   -0.8160 C   0  0  2  0  0  0  0  0  0  0  0  0
    2.9329    4.6157   -0.5664 C   0  0  2  0  0  0  0  0  0  0  0  0
    1.7501    5.4072   -0.1375 C   0  0  0  0  0  0  0  0  0  0  0  0
    1.5924    6.6591   -0.6202 C   0  0  0  0  0  0  0  0  0  0  0  0
    2.5475    7.2043   -1.5697 C   0  0  0  0  0  0  0  0  0  0  0  0
    3.7022    6.5636   -1.9187 C   0  0  0  0  0  0  0  0  0  0  0  0
    4.6396    7.0578   -2.7558 O   0  0  0  0  0  0  0  0  0  0  0  0
    4.0474    5.2354   -1.3372 C   0  0  0  0  0  0  0  0  0  0  0  0
    5.1213    4.6876   -1.5255 O   0  0  0  0  0  0  0  0  0  0  0  0
    3.0540    3.5754    0.5114 C   0  0  1  0  0  0  0  0  0  0  0  0
    4.0330    3.2174    0.8169 H   0  0  0  0  0  0  0  0  0  0  0  0
    1.1572    2.8944   -1.3290 C   0  0  0  0  0  0  0  0  0  0  0  0
    1.0100    3.3156   -2.5950 N   0  0  0  0  0  0  0  0  0  0  0  0
   -0.1371    3.1297   -3.2305 C   0  0  0  0  0  0  0  0  0  0  0  0
   -1.2556    2.4935   -2.6542 C   0  0  0  0  0  0  0  0  0  0  0  0
   -2.5218    2.3082   -3.4045 C   0  0  0  0  0  0  0  0  0  0  0  0
   -3.2995    1.1456   -3.2454 C   0  0  0  0  0  0  0  0  0  0  0  0
   -4.4911    0.9652   -3.9476 C   0  0  0  0  0  0  0  0  0  0  0  0
   -4.9249    1.9579   -4.8309 C   0  0  0  0  0  0  0  0  0  0  0  0
   -6.4166    1.7407   -5.7152 Cl  0  0  0  0  0  0  0  0  0  0  0  0
   -4.1739    3.1227   -5.0115 C   0  0  0  0  0  0  0  0  0  0  0  0
   -2.9847    3.2898   -4.3014 C   0  0  0  0  0  0  0  0  0  0  0  0
   -1.0896    2.0472   -1.3387 C   0  0  0  0  0  0  0  0  0  0  0  0
    0.1177    2.2321   -0.6497 C   0  0  0  0  0  0  0  0  0  0  0  0
    0.2178    1.7556    0.7828 C   0  0  0  0  0  0  0  0  0  0  0  0
    1.9679    3.5824    1.5368 C   0  0  2  0  0  0  0  0  0  0  0  0
    2.5500    3.9215    2.7919 O   0  0  0  0  0  0  0  0  0  0  0  0
    1.7018    4.0904    3.8984 C   0  0  0  0  0  0  0  0  0  0  0  0
    2.4595    3.9559    5.1870 C   0  0  0  0  0  0  0  0  0  0  0  0
    3.7658    3.6597    5.2781 C   0  0  0  0  0  0  0  0  0  0  0  0
    4.5672    3.5192    6.5052 C   0  0  0  0  0  0  0  0  0  0  0  0
    5.9382    3.2177    6.3877 C   0  0  0  0  0  0  0  0  0  0  0  0
    6.7492    3.0726    7.5155 C   0  0  0  0  0  0  0  0  0  0  0  0
    6.2062    3.2259    8.7935 C   0  0  0  0  0  0  0  0  0  0  0  0
    4.8450    3.5257    8.9302 C   0  0  0  0  0  0  0  0  0  0  0  0
    4.0374    3.6703    7.8033 C   0  0  0  0  0  0  0  0  0  0  0  0
    1.5202    2.0529    1.5410 C   0  0  2  0  0  0  0  0  0  0  0  0
    1.0052    4.7188    1.0090 C   0  0  0  0  0  0  0  0  0  0  0  0
    3.7690   -0.4735    1.8823 H   0  0  0  0  0  0  0  0  0  0  0  0
    2.0084   -0.7393    1.9546 H   0  0  0  0  0  0  0  0  0  0  0  0
    2.8066    0.3735    3.1065 H   0  0  0  0  0  0  0  0  0  0  0  0
    2.0263    0.3096   -0.7084 H   0  0  0  0  0  0  0  0  0  0  0  0
    3.6845   -0.0069   -0.2192 H   0  0  0  0  0  0  0  0  0  0  0  0
    3.2979    1.6000   -2.2491 H   0  0  0  0  0  0  0  0  0  0  0  0
    4.4973    2.1300   -1.0451 H   0  0  0  0  0  0  0  0  0  0  0  0
    0.7852    7.3077   -0.2684 H   0  0  0  0  0  0  0  0  0  0  0  0
    2.3499    8.1982   -1.9877 H   0  0  0  0  0  0  0  0  0  0  0  0
    4.3612    7.9289   -3.0696 H   0  0  0  0  0  0  0  0  0  0  0  0
   -0.1805    3.4801   -4.2686 H   0  0  0  0  0  0  0  0  0  0  0  0
   -2.9566    0.3521   -2.5774 H   0  0  0  0  0  0  0  0  0  0  0  0
   -5.0805    0.0554   -3.8217 H   0  0  0  0  0  0  0  0  0  0  0  0
   -4.5261    3.8947   -5.6977 H   0  0  0  0  0  0  0  0  0  0  0  0
   -2.4186    4.2146   -4.4318 H   0  0  0  0  0  0  0  0  0  0  0  0
   -1.9235    1.5638   -0.8207 H   0  0  0  0  0  0  0  0  0  0  0  0
    0.0444    0.6648    0.8123 H   0  0  0  0  0  0  0  0  0  0  0  0
   -0.6229    2.1929    1.3499 H   0  0  0  0  0  0  0  0  0  0  0  0
    0.8715    3.3506    3.8932 H   0  0  0  0  0  0  0  0  0  0  0  0
    1.2058    5.0852    3.8775 H   0  0  0  0  0  0  0  0  0  0  0  0
    1.8552    4.1312    6.0844 H   0  0  0  0  0  0  0  0  0  0  0  0
    4.3066    3.5073    4.3395 H   0  0  0  0  0  0  0  0  0  0  0  0
    6.3701    3.0977    5.3902 H   0  0  0  0  0  0  0  0  0  0  0  0
    7.8103    2.8394    7.3944 H   0  0  0  0  0  0  0  0  0  0  0  0
    6.8370    3.1136    9.6790 H   0  0  0  0  0  0  0  0  0  0  0  0
    4.4105    3.6480    9.9260 H   0  0  0  0  0  0  0  0  0  0  0  0
    2.9784    3.9042    7.9354 H   0  0  0  0  0  0  0  0  0  0  0  0
    1.3124    1.7971    2.5881 H   0  0  0  0  0  0  0  0  0  0  0  0
    0.8233    5.4436    1.8156 H   0  0  0  0  0  0  0  0  0  0  0  0
    0.0175    4.3535    0.6953 H   0  0  0  0  0  0  0  0  0  0  0  0
  1  2  1  0
  1 43  1  0
  1 44  1  0
  1 45  1  0
  2  3  1  0
  2 41  1  0
  3  4  1  0
  3 46  1  0
  3 47  1  0
  5  4  1  6
  4 48  1  0
  4 49  1  0
  5  6  1  0
  5 14  1  0
  5 16  1  0
  6  7  1  0
  6 12  1  6
  6 14  1  0
  7  8  2  0
  7 42  1  0
  8  9  1  0
  8 50  1  0
  9 10  2  0
  9 51  1  0
 10 11  1  0
 10 12  1  0
 11 52  1  0
 12 13  2  0
 14 15  1  1
 14 30  1  0
 16 17  1  0
 16 28  2  0
 17 18  2  0
 18 19  1  0
 18 53  1  0
 19 20  1  0
 19 27  2  0
 20 21  2  0
 20 26  1  0
 21 22  1  0
 21 54  1  0
 22 23  2  0
 22 55  1  0
 23 24  1  0
 23 25  1  0
 25 26  2  0
 25 56  1  0
 26 57  1  0
 27 28  1  0
 27 58  1  0
 28 29  1  0
 29 41  1  0
 29 59  1  0
 29 60  1  0
 30 31  1  1
 30 41  1  0
 30 42  1  0
 31 32  1  0
 32 33  1  0
 32 61  1  0
 32 62  1  0
 33 34  2  0
 33 63  1  0
 34 35  1  0
 34 64  1  0
 35 36  2  0
 35 40  1  0
 36 37  1  0
 36 65  1  0
 37 38  2  0
 37 66  1  0
 38 39  1  0
 38 67  1  0
 39 40  2  0
 39 68  1  0
 40 69  1  0
 41 70  1  1
 42 71  1  0
 42 72  1  0
M  END

