
     RDKit          3D

 31 31  0  0  0  0  0  0  0  0999 V2000
    4.8042   -1.1396   -2.1398 C   0  0  0  0  0  0  0  0  0  0  0  0
    4.1685   -0.5652   -0.9686 N   0  0  0  0  0  0  0  0  0  0  0  0
    4.4620    0.7064   -0.6275 N   0  0  0  0  0  0  0  0  0  0  0  0
    3.7696    0.9425    0.4753 C   0  0  0  0  0  0  0  0  0  0  0  0
    3.0037   -0.1838    0.8699 C   0  0  0  0  0  0  0  0  0  0  0  0
    2.1610   -0.2218    2.1012 C   0  0  0  0  0  0  0  0  0  0  0  0
    2.2482    0.6390    2.9455 O   0  0  0  0  0  0  0  0  0  0  0  0
    1.3137   -1.2495    2.2318 O   0  0  0  0  0  0  0  0  0  0  0  0
    3.2973   -1.1522   -0.0983 C   0  0  0  0  0  0  0  0  0  0  0  0
    2.8494   -2.5807   -0.2214 C   0  0  0  0  0  0  0  0  0  0  0  0
    1.3983   -2.6889   -0.0749 N   0  0  0  0  0  0  0  0  0  0  0  0
    0.8833   -4.0549   -0.0397 C   0  0  0  0  0  0  0  0  0  0  0  0
   -0.6378   -4.0288   -0.0809 C   0  0  1  0  0  0  0  0  0  0  0  0
   -1.0138   -3.3573   -1.2672 O   0  0  0  0  0  0  0  0  0  0  0  0
   -1.2754   -5.4182   -0.0573 C   0  0  0  0  0  0  0  0  0  0  0  0
   -2.6683   -5.3132   -0.3014 O   0  0  0  0  0  0  0  0  0  0  0  0
    5.3747   -0.3336   -2.6154 H   0  0  0  0  0  0  0  0  0  0  0  0
    4.0583   -1.5216   -2.8539 H   0  0  0  0  0  0  0  0  0  0  0  0
    5.4935   -1.9549   -1.8680 H   0  0  0  0  0  0  0  0  0  0  0  0
    3.8183    1.9072    0.9780 H   0  0  0  0  0  0  0  0  0  0  0  0
    1.2465   -1.7854    1.3905 H   0  0  0  0  0  0  0  0  0  0  0  0
    3.3105   -3.1813    0.5838 H   0  0  0  0  0  0  0  0  0  0  0  0
    3.2102   -3.0187   -1.1724 H   0  0  0  0  0  0  0  0  0  0  0  0
    0.9233   -2.1833   -0.8256 H   0  0  0  0  0  0  0  0  0  0  0  0
    1.2285   -4.5470    0.8860 H   0  0  0  0  0  0  0  0  0  0  0  0
    1.2522   -4.6563   -0.8968 H   0  0  0  0  0  0  0  0  0  0  0  0
   -0.9964   -3.4656    0.8092 H   0  0  0  0  0  0  0  0  0  0  0  0
   -1.9492   -3.5711   -1.4136 H   0  0  0  0  0  0  0  0  0  0  0  0
   -1.0546   -5.9376    0.8943 H   0  0  0  0  0  0  0  0  0  0  0  0
   -0.8646   -6.0262   -0.8797 H   0  0  0  0  0  0  0  0  0  0  0  0
   -3.0993   -4.9944    0.5035 H   0  0  0  0  0  0  0  0  0  0  0  0
  1  2  1  0
  1 17  1  0
  1 18  1  0
  1 19  1  0
  2  3  1  0
  2  9  1  0
  3  4  2  0
  4  5  1  0
  4 20  1  0
  5  6  1  0
  5  9  2  0
  6  7  2  0
  6  8  1  0
  8 21  1  0
  9 10  1  0
 10 11  1  0
 10 22  1  0
 10 23  1  0
 11 12  1  0
 11 24  1  0
 12 13  1  0
 12 25  1  0
 12 26  1  0
 13 14  1  0
 13 15  1  0
 13 27  1  1
 14 28  1  0
 15 16  1  0
 15 29  1  0
 15 30  1  0
 16 31  1  0
M  END

