
     RDKit          3D

 32 32  0  0  0  0  0  0  0  0999 V2000
    0.9185    0.1005    0.2803 O   0  0  0  0  0  0  0  0  0  0  0  0
    2.1090   -0.0001    0.0304 C   0  0  0  0  0  0  0  0  0  0  0  0
    2.7938   -1.3476   -0.1724 C   0  0  0  0  0  0  0  0  0  0  0  0
    1.8063   -2.5011   -0.1064 C   0  0  0  0  0  0  0  0  0  0  0  0
    2.5437   -3.6957   -0.2922 O   0  0  0  0  0  0  0  0  0  0  0  0
    1.8978   -4.8922   -0.2779 C   0  0  0  0  0  0  0  0  0  0  0  0
    2.7007   -6.0295   -0.4771 C   0  0  0  0  0  0  0  0  0  0  0  0
    2.1281   -7.2987   -0.4793 C   0  0  0  0  0  0  0  0  0  0  0  0
    0.7494   -7.4583   -0.2838 C   0  0  0  0  0  0  0  0  0  0  0  0
   -0.0440   -6.3279   -0.0865 C   0  0  0  0  0  0  0  0  0  0  0  0
    0.5166   -5.0441   -0.0812 C   0  0  0  0  0  0  0  0  0  0  0  0
    2.9264    1.0910   -0.0877 N   0  0  0  0  0  0  0  0  0  0  0  0
    2.4232    2.4479    0.0649 C   0  0  0  0  0  0  0  0  0  0  0  0
    2.3957    2.9570    1.5164 C   0  0  0  0  0  0  0  0  0  0  0  0
    3.7826    3.0547    2.1305 C   0  0  0  0  0  0  0  0  0  0  0  0
    3.7316    3.6858    3.9952 Br  0  0  0  0  0  0  0  0  0  0  0  0
    3.5719   -1.4854    0.5983 H   0  0  0  0  0  0  0  0  0  0  0  0
    3.3169   -1.3606   -1.1441 H   0  0  0  0  0  0  0  0  0  0  0  0
    1.0323   -2.3886   -0.8860 H   0  0  0  0  0  0  0  0  0  0  0  0
    1.2864   -2.5018    0.8673 H   0  0  0  0  0  0  0  0  0  0  0  0
    3.7728   -5.8864   -0.6277 H   0  0  0  0  0  0  0  0  0  0  0  0
    2.7641   -8.1742   -0.6351 H   0  0  0  0  0  0  0  0  0  0  0  0
    0.3022   -8.4548   -0.2858 H   0  0  0  0  0  0  0  0  0  0  0  0
   -1.1210   -6.4358    0.0679 H   0  0  0  0  0  0  0  0  0  0  0  0
   -0.1271   -4.1786    0.0763 H   0  0  0  0  0  0  0  0  0  0  0  0
    3.9035    0.9466   -0.3102 H   0  0  0  0  0  0  0  0  0  0  0  0
    1.3953    2.4647   -0.3266 H   0  0  0  0  0  0  0  0  0  0  0  0
    3.0332    3.1148   -0.5668 H   0  0  0  0  0  0  0  0  0  0  0  0
    1.7617    2.2853    2.1158 H   0  0  0  0  0  0  0  0  0  0  0  0
    1.9145    3.9488    1.5305 H   0  0  0  0  0  0  0  0  0  0  0  0
    4.4241    3.7693    1.5960 H   0  0  0  0  0  0  0  0  0  0  0  0
    4.2864    2.0799    2.1657 H   0  0  0  0  0  0  0  0  0  0  0  0
  1  2  2  0
  2  3  1  0
  2 12  1  0
  3  4  1  0
  3 17  1  0
  3 18  1  0
  4  5  1  0
  4 19  1  0
  4 20  1  0
  5  6  1  0
  6  7  2  0
  6 11  1  0
  7  8  1  0
  7 21  1  0
  8  9  2  0
  8 22  1  0
  9 10  1  0
  9 23  1  0
 10 11  2  0
 10 24  1  0
 11 25  1  0
 12 13  1  0
 12 26  1  0
 13 14  1  0
 13 27  1  0
 13 28  1  0
 14 15  1  0
 14 29  1  0
 14 30  1  0
 15 16  1  0
 15 31  1  0
 15 32  1  0
M  END

