
     RDKit          3D

 47 49  0  0  0  0  0  0  0  0999 V2000
    3.2216    0.9750    2.8737 C   0  0  0  0  0  0  0  0  0  0  0  0
    3.7377    0.3605    1.6079 C   0  0  0  0  0  0  0  0  0  0  0  0
    3.6496    0.8551    0.3219 C   0  0  0  0  0  0  0  0  0  0  0  0
    4.2498    0.0135   -0.6497 C   0  0  0  0  0  0  0  0  0  0  0  0
    4.8021   -1.1323   -0.1127 C   0  0  0  0  0  0  0  0  0  0  0  0
    5.4860   -2.1960   -0.8818 C   0  0  0  0  0  0  0  0  0  0  0  0
    5.6243   -2.0844   -2.0882 O   0  0  0  0  0  0  0  0  0  0  0  0
    5.9677   -3.4269   -0.1272 C   0  0  0  0  0  0  0  0  0  0  0  0
    6.9365   -4.2802   -0.9344 C   0  0  0  0  0  0  0  0  0  0  0  0
    6.9868   -5.7274   -0.4628 C   0  0  0  0  0  0  0  0  0  0  0  0
    6.1144   -6.2370    0.2283 O   0  0  0  0  0  0  0  0  0  0  0  0
    8.0768   -6.4323   -0.8970 N   0  0  0  0  0  0  0  0  0  0  0  0
    8.2452   -7.8562   -0.6624 C   0  0  0  0  0  0  0  0  0  0  0  0
    9.5104   -8.2305    0.0933 C   0  0  0  0  0  0  0  0  0  0  0  0
   10.4739   -9.0180   -0.5559 C   0  0  0  0  0  0  0  0  0  0  0  0
   11.6489   -9.4165    0.0856 C   0  0  0  0  0  0  0  0  0  0  0  0
   11.8772   -9.0297    1.4070 C   0  0  0  0  0  0  0  0  0  0  0  0
   10.9258   -8.2493    2.0670 C   0  0  0  0  0  0  0  0  0  0  0  0
    9.7446   -7.8373    1.4317 C   0  0  0  0  0  0  0  0  0  0  0  0
    8.7646   -6.9850    2.2119 C   0  0  0  0  0  0  0  0  0  0  0  0
    9.0868   -5.5515    2.1863 N   0  0  0  0  0  0  0  0  0  0  0  0
    8.3456   -4.5691    2.8086 C   0  0  0  0  0  0  0  0  0  0  0  0
    8.9718   -3.3790    2.5038 C   0  0  0  0  0  0  0  0  0  0  0  0
   10.0684   -3.6061    1.7125 N   0  0  0  0  0  0  0  0  0  0  0  0
   10.1126   -4.9106    1.5437 C   0  0  0  0  0  0  0  0  0  0  0  0
    4.5721   -1.1636    1.6214 S   0  0  0  0  0  0  0  0  0  0  0  0
    2.7306    1.9339    2.6521 H   0  0  0  0  0  0  0  0  0  0  0  0
    4.0323    1.1683    3.5957 H   0  0  0  0  0  0  0  0  0  0  0  0
    2.4852    0.3249    3.3746 H   0  0  0  0  0  0  0  0  0  0  0  0
    3.1630    1.8047    0.0908 H   0  0  0  0  0  0  0  0  0  0  0  0
    4.2913    0.2148   -1.7206 H   0  0  0  0  0  0  0  0  0  0  0  0
    5.0812   -4.0349    0.1291 H   0  0  0  0  0  0  0  0  0  0  0  0
    6.4121   -3.1328    0.8375 H   0  0  0  0  0  0  0  0  0  0  0  0
    7.9492   -3.8445   -0.9207 H   0  0  0  0  0  0  0  0  0  0  0  0
    6.6156   -4.2765   -1.9906 H   0  0  0  0  0  0  0  0  0  0  0  0
    8.7785   -5.9484   -1.4451 H   0  0  0  0  0  0  0  0  0  0  0  0
    8.2408   -8.3964   -1.6245 H   0  0  0  0  0  0  0  0  0  0  0  0
    7.3465   -8.1756   -0.1142 H   0  0  0  0  0  0  0  0  0  0  0  0
   10.2932   -9.3291   -1.5889 H   0  0  0  0  0  0  0  0  0  0  0  0
   12.3806  -10.0301   -0.4459 H   0  0  0  0  0  0  0  0  0  0  0  0
   12.7889   -9.3366    1.9252 H   0  0  0  0  0  0  0  0  0  0  0  0
   11.1001   -7.9502    3.1047 H   0  0  0  0  0  0  0  0  0  0  0  0
    8.7669   -7.3112    3.2647 H   0  0  0  0  0  0  0  0  0  0  0  0
    7.7384   -7.1031    1.8341 H   0  0  0  0  0  0  0  0  0  0  0  0
    7.4559   -4.8032    3.3883 H   0  0  0  0  0  0  0  0  0  0  0  0
    8.6848   -2.3751    2.8170 H   0  0  0  0  0  0  0  0  0  0  0  0
   10.8627   -5.4535    0.9715 H   0  0  0  0  0  0  0  0  0  0  0  0
  1  2  1  0
  1 27  1  0
  1 28  1  0
  1 29  1  0
  2  3  2  0
  2 26  1  0
  3  4  1  0
  3 30  1  0
  4  5  2  0
  4 31  1  0
  5  6  1  0
  5 26  1  0
  6  7  2  0
  6  8  1  0
  8  9  1  0
  8 32  1  0
  8 33  1  0
  9 10  1  0
  9 34  1  0
  9 35  1  0
 10 11  2  0
 10 12  1  0
 12 13  1  0
 12 36  1  0
 13 14  1  0
 13 37  1  0
 13 38  1  0
 14 15  2  0
 14 19  1  0
 15 16  1  0
 15 39  1  0
 16 17  2  0
 16 40  1  0
 17 18  1  0
 17 41  1  0
 18 19  2  0
 18 42  1  0
 19 20  1  0
 20 21  1  0
 20 43  1  0
 20 44  1  0
 21 22  1  0
 21 25  1  0
 22 23  2  0
 22 45  1  0
 23 24  1  0
 23 46  1  0
 24 25  2  0
 25 47  1  0
M  END

