
     RDKit          3D

 52 54  0  0  0  0  0  0  0  0999 V2000
    1.6599    0.2624   -0.0737 C   0  0  0  0  0  0  0  0  0  0  0  0
    2.7895   -0.3281    0.7607 C   0  0  1  0  0  0  0  0  0  0  0  0
    2.2645   -0.7267    2.5057 S   0  0  0  0  0  0  0  0  0  0  0  0
    2.3383    0.8899    3.2759 C   0  0  0  0  0  0  0  0  0  0  0  0
    1.1486    1.5684    3.5799 C   0  0  0  0  0  0  0  0  0  0  0  0
    1.1809    2.8076    4.2242 C   0  0  0  0  0  0  0  0  0  0  0  0
    2.4135    3.3741    4.5607 C   0  0  0  0  0  0  0  0  0  0  0  0
    2.4621    4.9255    5.3599 Cl  0  0  0  0  0  0  0  0  0  0  0  0
    3.6102    2.7101    4.2684 C   0  0  0  0  0  0  0  0  0  0  0  0
    3.5668    1.4667    3.6368 C   0  0  0  0  0  0  0  0  0  0  0  0
    3.4196   -1.5604    0.0773 C   0  0  0  0  0  0  0  0  0  0  0  0
    3.3112   -1.7256   -1.1280 O   0  0  0  0  0  0  0  0  0  0  0  0
    4.1341   -2.3950    0.8799 N   0  0  0  0  0  0  0  0  0  0  0  0
    4.8392   -3.5569    0.3603 C   0  0  0  0  0  0  0  0  0  0  0  0
    6.3075   -3.2987    0.0706 C   0  0  0  0  0  0  0  0  0  0  0  0
    7.3118   -3.8789    0.8550 C   0  0  0  0  0  0  0  0  0  0  0  0
    8.6632   -3.6238    0.5964 C   0  0  0  0  0  0  0  0  0  0  0  0
    8.9995   -2.7814   -0.4625 C   0  0  0  0  0  0  0  0  0  0  0  0
   10.7275   -2.3979   -0.7634 S   0  0  1  0  0  0  0  0  0  0  0  0
   10.8537   -0.9569   -0.9974 O   0  0  0  0  0  0  0  0  0  0  0  0
   11.5131   -3.0621    0.2840 O   0  0  0  0  0  0  0  0  0  0  0  0
   10.9987   -3.1394   -2.2698 N   0  0  0  0  0  0  0  0  0  0  0  0
   11.1961   -4.5927   -2.2364 C   0  0  0  0  0  0  0  0  0  0  0  0
   11.1201   -5.1245   -3.6676 C   0  0  0  0  0  0  0  0  0  0  0  0
   12.0406   -4.4717   -4.5142 O   0  0  0  0  0  0  0  0  0  0  0  0
   11.8204   -3.0766   -4.5522 C   0  0  0  0  0  0  0  0  0  0  0  0
   11.9418   -2.4527   -3.1648 C   0  0  0  0  0  0  0  0  0  0  0  0
    8.0140   -2.1825   -1.2575 C   0  0  0  0  0  0  0  0  0  0  0  0
    6.6737   -2.4488   -0.9915 C   0  0  0  0  0  0  0  0  0  0  0  0
    1.2901    1.1929    0.3810 H   0  0  0  0  0  0  0  0  0  0  0  0
    0.8224   -0.4460   -0.1570 H   0  0  0  0  0  0  0  0  0  0  0  0
    2.0222    0.4800   -1.0889 H   0  0  0  0  0  0  0  0  0  0  0  0
    3.6065    0.4069    0.8609 H   0  0  0  0  0  0  0  0  0  0  0  0
    0.1903    1.1205    3.3090 H   0  0  0  0  0  0  0  0  0  0  0  0
    0.2565    3.3366    4.4618 H   0  0  0  0  0  0  0  0  0  0  0  0
    4.5640    3.1616    4.5464 H   0  0  0  0  0  0  0  0  0  0  0  0
    4.4984    0.9357    3.4277 H   0  0  0  0  0  0  0  0  0  0  0  0
    4.1932   -2.1721    1.8689 H   0  0  0  0  0  0  0  0  0  0  0  0
    4.3250   -3.8484   -0.5674 H   0  0  0  0  0  0  0  0  0  0  0  0
    4.7383   -4.3830    1.0810 H   0  0  0  0  0  0  0  0  0  0  0  0
    7.0402   -4.5397    1.6832 H   0  0  0  0  0  0  0  0  0  0  0  0
    9.4544   -4.0601    1.2083 H   0  0  0  0  0  0  0  0  0  0  0  0
   10.4062   -5.0587   -1.6271 H   0  0  0  0  0  0  0  0  0  0  0  0
   12.1724   -4.8517   -1.7848 H   0  0  0  0  0  0  0  0  0  0  0  0
   10.0859   -4.9980   -4.0489 H   0  0  0  0  0  0  0  0  0  0  0  0
   11.3685   -6.1966   -3.6845 H   0  0  0  0  0  0  0  0  0  0  0  0
   10.8157   -2.8551   -4.9674 H   0  0  0  0  0  0  0  0  0  0  0  0
   12.5782   -2.6485   -5.2257 H   0  0  0  0  0  0  0  0  0  0  0  0
   11.6937   -1.3835   -3.1941 H   0  0  0  0  0  0  0  0  0  0  0  0
   12.9846   -2.5576   -2.8055 H   0  0  0  0  0  0  0  0  0  0  0  0
    8.3010   -1.5166   -2.0733 H   0  0  0  0  0  0  0  0  0  0  0  0
    5.8900   -1.9975   -1.6052 H   0  0  0  0  0  0  0  0  0  0  0  0
  1  2  1  0
  1 30  1  0
  1 31  1  0
  1 32  1  0
  2  3  1  0
  2 11  1  0
  2 33  1  1
  3  4  1  0
  4  5  2  0
  4 10  1  0
  5  6  1  0
  5 34  1  0
  6  7  2  0
  6 35  1  0
  7  8  1  0
  7  9  1  0
  9 10  2  0
  9 36  1  0
 10 37  1  0
 11 12  2  0
 11 13  1  0
 13 14  1  0
 13 38  1  0
 14 15  1  0
 14 39  1  0
 14 40  1  0
 15 16  2  0
 15 29  1  0
 16 17  1  0
 16 41  1  0
 17 18  2  0
 17 42  1  0
 19 18  1  1
 18 28  1  0
 19 20  2  0
 19 21  2  0
 19 22  1  0
 22 23  1  0
 22 27  1  0
 23 24  1  0
 23 43  1  0
 23 44  1  0
 24 25  1  0
 24 45  1  0
 24 46  1  0
 25 26  1  0
 26 27  1  0
 26 47  1  0
 26 48  1  0
 27 49  1  0
 27 50  1  0
 28 29  2  0
 28 51  1  0
 29 52  1  0
M  END

