
     RDKit          3D

 63 67  0  0  0  0  0  0  0  0999 V2000
    9.8440  -10.8383    4.9873 C   0  0  0  0  0  0  0  0  0  0  0  0
    8.8790  -10.1819    4.0525 C   0  0  0  0  0  0  0  0  0  0  0  0
    7.8384   -9.5277    4.5190 N   0  0  0  0  0  0  0  0  0  0  0  0
    7.1617   -9.0444    3.4152 O   0  0  0  0  0  0  0  0  0  0  0  0
    7.8032   -9.4471    2.2922 C   0  0  0  0  0  0  0  0  0  0  0  0
    7.2569   -9.0698    1.0722 N   0  0  0  0  0  0  0  0  0  0  0  0
    7.9440   -7.8078    0.1437 S   0  0  1  0  0  0  0  0  0  0  0  0
    9.3775   -8.0845    0.0851 O   0  0  0  0  0  0  0  0  0  0  0  0
    7.1195   -7.7514   -1.0604 O   0  0  0  0  0  0  0  0  0  0  0  0
    7.7269   -6.2769    1.0776 C   0  0  0  0  0  0  0  0  0  0  0  0
    8.8984   -5.6340    1.4923 C   0  0  0  0  0  0  0  0  0  0  0  0
    8.8156   -4.4132    2.1633 C   0  0  0  0  0  0  0  0  0  0  0  0
    7.5649   -3.8435    2.4079 C   0  0  0  0  0  0  0  0  0  0  0  0
    6.4007   -4.4952    1.9928 C   0  0  0  0  0  0  0  0  0  0  0  0
    6.4501   -5.7277    1.3224 C   0  0  0  0  0  0  0  0  0  0  0  0
    5.1617   -6.4032    0.9551 C   0  0  0  0  0  0  0  0  0  0  0  0
    4.5577   -7.2554    1.9006 C   0  0  0  0  0  0  0  0  0  0  0  0
    3.3393   -7.8758    1.6396 C   0  0  0  0  0  0  0  0  0  0  0  0
    2.6886   -7.6461    0.4152 C   0  0  0  0  0  0  0  0  0  0  0  0
    1.4092   -8.3014    0.1478 C   0  0  0  0  0  0  0  0  0  0  0  0
    0.7455   -9.1157    0.9195 N   0  0  0  0  0  0  0  0  0  0  0  0
   -0.3857   -9.4468    0.2044 C   0  0  0  0  0  0  0  0  0  0  0  0
   -0.3554   -8.8032   -0.9970 C   0  0  0  0  0  0  0  0  0  0  0  0
    0.7900   -8.0683   -1.0402 O   0  0  0  0  0  0  0  0  0  0  0  0
    3.2837   -6.7921   -0.5246 C   0  0  0  0  0  0  0  0  0  0  0  0
    4.5121   -6.1681   -0.2743 C   0  0  0  0  0  0  0  0  0  0  0  0
    5.1028   -5.2470   -1.3327 C   0  0  0  0  0  0  0  0  0  0  0  0
    4.3393   -3.9679   -1.4764 C   0  0  0  0  0  0  0  0  0  0  0  0
    4.5128   -2.8442   -0.8527 N   0  0  0  0  0  0  0  0  0  0  0  0
    3.5130   -1.9967   -1.3208 C   0  0  0  0  0  0  0  0  0  0  0  0
    3.3867   -0.5790   -0.8314 C   0  0  1  0  0  0  0  0  0  0  0  0
    2.2637    0.1813   -1.5443 C   0  0  0  0  0  0  0  0  0  0  0  0
    3.2256   -0.5387    0.6976 C   0  0  0  0  0  0  0  0  0  0  0  0
    2.7659   -2.6892   -2.2281 C   0  0  0  0  0  0  0  0  0  0  0  0
    3.2887   -3.9493   -2.3339 O   0  0  0  0  0  0  0  0  0  0  0  0
    8.9143  -10.1784    2.6156 C   0  0  0  0  0  0  0  0  0  0  0  0
    9.9063  -10.8323    1.7100 C   0  0  0  0  0  0  0  0  0  0  0  0
    9.5262  -10.6814    6.0271 H   0  0  0  0  0  0  0  0  0  0  0  0
   10.8583  -10.4259    4.8613 H   0  0  0  0  0  0  0  0  0  0  0  0
    9.9049  -11.9221    4.7965 H   0  0  0  0  0  0  0  0  0  0  0  0
    6.2376   -9.0544    1.0171 H   0  0  0  0  0  0  0  0  0  0  0  0
    9.8610   -6.0985    1.2761 H   0  0  0  0  0  0  0  0  0  0  0  0
    9.7286   -3.9084    2.4874 H   0  0  0  0  0  0  0  0  0  0  0  0
    7.4899   -2.8837    2.9245 H   0  0  0  0  0  0  0  0  0  0  0  0
    5.4254   -4.0412    2.1781 H   0  0  0  0  0  0  0  0  0  0  0  0
    5.0624   -7.4361    2.8526 H   0  0  0  0  0  0  0  0  0  0  0  0
    2.8751   -8.5359    2.3743 H   0  0  0  0  0  0  0  0  0  0  0  0
   -1.1443  -10.1223    0.5958 H   0  0  0  0  0  0  0  0  0  0  0  0
   -1.0074   -8.7583   -1.8641 H   0  0  0  0  0  0  0  0  0  0  0  0
    2.7770   -6.6081   -1.4740 H   0  0  0  0  0  0  0  0  0  0  0  0
    5.1119   -5.7694   -2.3007 H   0  0  0  0  0  0  0  0  0  0  0  0
    6.1406   -4.9966   -1.0874 H   0  0  0  0  0  0  0  0  0  0  0  0
    4.3458   -0.0827   -1.0716 H   0  0  0  0  0  0  0  0  0  0  0  0
    1.2810   -0.2757   -1.3382 H   0  0  0  0  0  0  0  0  0  0  0  0
    2.4098    0.1947   -2.6362 H   0  0  0  0  0  0  0  0  0  0  0  0
    2.2211    1.2260   -1.1991 H   0  0  0  0  0  0  0  0  0  0  0  0
    2.2701   -0.9962    1.0040 H   0  0  0  0  0  0  0  0  0  0  0  0
    3.2404    0.5001    1.0650 H   0  0  0  0  0  0  0  0  0  0  0  0
    4.0397   -1.0924    1.1877 H   0  0  0  0  0  0  0  0  0  0  0  0
    1.9080   -2.4598   -2.8514 H   0  0  0  0  0  0  0  0  0  0  0  0
    9.5755  -10.7713    0.6650 H   0  0  0  0  0  0  0  0  0  0  0  0
   10.0517  -11.8917    1.9784 H   0  0  0  0  0  0  0  0  0  0  0  0
   10.8898  -10.3373    1.7666 H   0  0  0  0  0  0  0  0  0  0  0  0
  1  2  1  0
  1 38  1  0
  1 39  1  0
  1 40  1  0
  2  3  2  0
  2 36  1  0
  3  4  1  0
  4  5  1  0
  5  6  1  0
  5 36  2  0
  7  6  1  1
  6 41  1  0
  7  8  2  0
  7  9  2  0
  7 10  1  0
 10 11  2  0
 10 15  1  0
 11 12  1  0
 11 42  1  0
 12 13  2  0
 12 43  1  0
 13 14  1  0
 13 44  1  0
 14 15  2  0
 14 45  1  0
 15 16  1  0
 16 17  2  0
 16 26  1  0
 17 18  1  0
 17 46  1  0
 18 19  2  0
 18 47  1  0
 19 20  1  0
 19 25  1  0
 20 21  2  0
 20 24  1  0
 21 22  1  0
 22 23  2  0
 22 48  1  0
 23 24  1  0
 23 49  1  0
 25 26  2  0
 25 50  1  0
 26 27  1  0
 27 28  1  0
 27 51  1  0
 27 52  1  0
 28 29  2  0
 28 35  1  0
 29 30  1  0
 30 31  1  0
 30 34  2  0
 31 32  1  0
 31 33  1  0
 31 53  1  1
 32 54  1  0
 32 55  1  0
 32 56  1  0
 33 57  1  0
 33 58  1  0
 33 59  1  0
 34 35  1  0
 34 60  1  0
 36 37  1  0
 37 61  1  0
 37 62  1  0
 37 63  1  0
M  END

