
     RDKit          3D

 29 30  0  0  0  0  0  0  0  0999 V2000
    1.0628    1.7921   -0.7141 Br  0  0  0  0  0  0  0  0  0  0  0  0
    3.2719    1.3152   -1.0380 C   0  0  1  0  0  0  0  0  0  0  0  0
    3.6577    0.5759    0.1803 C   0  0  0  0  0  0  0  0  0  0  0  0
    3.8413   -0.7167   -0.1329 C   0  0  0  0  0  0  0  0  0  0  0  0
    3.6033   -0.9213   -1.6023 C   0  0  0  0  0  0  0  0  0  0  0  0
    3.4540    0.4455   -2.0808 N   0  0  0  0  0  0  0  0  0  0  0  0
    3.0012    0.7464   -3.4138 C   0  0  0  0  0  0  0  0  0  0  0  0
    3.4544    2.0247   -3.7453 O   0  0  0  0  0  0  0  0  0  0  0  0
    2.6926    2.7076   -4.7316 C   0  0  0  0  0  0  0  0  0  0  0  0
    2.9656    4.1880   -4.6381 C   0  0  0  0  0  0  0  0  0  0  0  0
    3.6684    4.8635   -5.6436 C   0  0  0  0  0  0  0  0  0  0  0  0
    3.9200    6.2358   -5.5387 C   0  0  0  0  0  0  0  0  0  0  0  0
    3.4749    6.9433   -4.4196 C   0  0  0  0  0  0  0  0  0  0  0  0
    2.7752    6.2752   -3.4075 C   0  0  0  0  0  0  0  0  0  0  0  0
    2.5206    4.9071   -3.5162 C   0  0  0  0  0  0  0  0  0  0  0  0
    3.5308    2.3587   -1.2116 H   0  0  0  0  0  0  0  0  0  0  0  0
    3.7200    1.0384    1.1642 H   0  0  0  0  0  0  0  0  0  0  0  0
    4.0908   -1.5274    0.5524 H   0  0  0  0  0  0  0  0  0  0  0  0
    2.6894   -1.5296   -1.7747 H   0  0  0  0  0  0  0  0  0  0  0  0
    4.4379   -1.4317   -2.1179 H   0  0  0  0  0  0  0  0  0  0  0  0
    1.8893    0.7142   -3.4524 H   0  0  0  0  0  0  0  0  0  0  0  0
    3.4003   -0.0332   -4.0950 H   0  0  0  0  0  0  0  0  0  0  0  0
    1.6157    2.5125   -4.5621 H   0  0  0  0  0  0  0  0  0  0  0  0
    2.9434    2.3328   -5.7430 H   0  0  0  0  0  0  0  0  0  0  0  0
    4.0234    4.3107   -6.5183 H   0  0  0  0  0  0  0  0  0  0  0  0
    4.4680    6.7512   -6.3318 H   0  0  0  0  0  0  0  0  0  0  0  0
    3.6709    8.0155   -4.3349 H   0  0  0  0  0  0  0  0  0  0  0  0
    2.4220    6.8255   -2.5315 H   0  0  0  0  0  0  0  0  0  0  0  0
    1.9701    4.3862   -2.7269 H   0  0  0  0  0  0  0  0  0  0  0  0
  1  2  1  0
  2  3  1  0
  2  6  1  0
  2 16  1  6
  3  4  2  0
  3 17  1  0
  4  5  1  0
  4 18  1  0
  5  6  1  0
  5 19  1  0
  5 20  1  0
  6  7  1  0
  7  8  1  0
  7 21  1  0
  7 22  1  0
  8  9  1  0
  9 10  1  0
  9 23  1  0
  9 24  1  0
 10 11  2  0
 10 15  1  0
 11 12  1  0
 11 25  1  0
 12 13  2  0
 12 26  1  0
 13 14  1  0
 13 27  1  0
 14 15  2  0
 14 28  1  0
 15 29  1  0
M  END

