
     RDKit          3D

 38 41  0  0  0  0  0  0  0  0999 V2000
    2.0566   -1.4822    0.0204 O   0  0  0  0  0  0  0  0  0  0  0  0
    2.4770   -0.3480    0.1702 C   0  0  0  0  0  0  0  0  0  0  0  0
    1.9175    0.5530    1.2756 C   0  0  0  0  0  0  0  0  0  0  0  0
    1.2933    1.8323    0.8000 C   0  0  0  0  0  0  0  0  0  0  0  0
    1.3395    2.9733    1.5201 N   0  0  0  0  0  0  0  0  0  0  0  0
    0.7131    3.8579    0.7499 C   0  0  0  0  0  0  0  0  0  0  0  0
    0.4622    5.1581    0.9493 N   0  0  0  0  0  0  0  0  0  0  0  0
   -0.1702    5.7993   -0.0124 C   0  0  0  0  0  0  0  0  0  0  0  0
   -0.5938    5.1950   -1.2290 C   0  0  0  0  0  0  0  0  0  0  0  0
   -0.3359    3.8593   -1.4239 C   0  0  0  0  0  0  0  0  0  0  0  0
    0.3059    3.2042   -0.4266 N   0  0  0  0  0  0  0  0  0  0  0  0
    0.6768    1.9137   -0.3870 N   0  0  0  0  0  0  0  0  0  0  0  0
    3.4906    0.1567   -0.6194 N   0  0  0  0  0  0  0  0  0  0  0  0
    3.8829   -0.5765   -1.8123 C   0  0  0  0  0  0  0  0  0  0  0  0
    3.2210    0.0527   -3.0338 C   0  0  0  0  0  0  0  0  0  0  0  0
    3.3826    1.5135   -3.0744 N   0  0  0  0  0  0  0  0  0  0  0  0
    2.9322    2.1562   -4.2823 C   0  0  1  0  0  0  0  0  0  0  0  0
    3.7552    3.2479   -4.8973 C   0  0  0  0  0  0  0  0  0  0  0  0
    3.6875    1.9007   -5.5662 C   0  0  0  0  0  0  0  0  0  0  0  0
    3.4966    2.2780   -1.9310 C   0  0  0  0  0  0  0  0  0  0  0  0
    3.3277    3.4844   -1.9100 O   0  0  0  0  0  0  0  0  0  0  0  0
    3.9452    1.5329   -0.6648 C   0  0  0  0  0  0  0  0  0  0  0  0
    2.6939    0.8093    2.0124 H   0  0  0  0  0  0  0  0  0  0  0  0
    1.1670   -0.0625    1.7929 H   0  0  0  0  0  0  0  0  0  0  0  0
   -0.3713    6.8641    0.1546 H   0  0  0  0  0  0  0  0  0  0  0  0
   -1.1077    5.7766   -1.9945 H   0  0  0  0  0  0  0  0  0  0  0  0
   -0.6014    3.2769   -2.3071 H   0  0  0  0  0  0  0  0  0  0  0  0
    3.5633   -1.6198   -1.7041 H   0  0  0  0  0  0  0  0  0  0  0  0
    4.9827   -0.5461   -1.9065 H   0  0  0  0  0  0  0  0  0  0  0  0
    2.1433   -0.1973   -3.0298 H   0  0  0  0  0  0  0  0  0  0  0  0
    3.6517   -0.3712   -3.9548 H   0  0  0  0  0  0  0  0  0  0  0  0
    1.8402    2.2527   -4.3646 H   0  0  0  0  0  0  0  0  0  0  0  0
    4.6801    3.5217   -4.3861 H   0  0  0  0  0  0  0  0  0  0  0  0
    3.2215    4.0920   -5.3413 H   0  0  0  0  0  0  0  0  0  0  0  0
    4.5767    1.2658   -5.5101 H   0  0  0  0  0  0  0  0  0  0  0  0
    3.1088    1.7880   -6.4871 H   0  0  0  0  0  0  0  0  0  0  0  0
    3.6095    2.1197    0.1947 H   0  0  0  0  0  0  0  0  0  0  0  0
    5.0519    1.5534   -0.6488 H   0  0  0  0  0  0  0  0  0  0  0  0
  1  2  2  0
  2  3  1  0
  2 13  1  0
  3  4  1  0
  3 23  1  0
  3 24  1  0
  4  5  1  0
  4 12  2  0
  5  6  2  0
  6  7  1  0
  6 11  1  0
  7  8  2  0
  8  9  1  0
  8 25  1  0
  9 10  2  0
  9 26  1  0
 10 11  1  0
 10 27  1  0
 11 12  1  0
 13 14  1  0
 13 22  1  0
 14 15  1  0
 14 28  1  0
 14 29  1  0
 15 16  1  0
 15 30  1  0
 15 31  1  0
 16 17  1  0
 16 20  1  0
 17 18  1  0
 17 19  1  0
 17 32  1  6
 18 19  1  0
 18 33  1  0
 18 34  1  0
 19 35  1  0
 19 36  1  0
 20 21  2  0
 20 22  1  0
 22 37  1  0
 22 38  1  0
M  END

