
     RDKit          3D

 84 89  0  0  0  0  0  0  0  0999 V2000
    1.7469   -0.5111   -1.9005 C   0  0  0  0  0  0  0  0  0  0  0  0
    2.2339    0.7967   -1.7898 O   0  0  0  0  0  0  0  0  0  0  0  0
    3.5459    0.8736   -1.2781 C   0  0  0  0  0  0  0  0  0  0  0  0
    3.9494    2.3401   -1.2285 C   0  0  0  0  0  0  0  0  0  0  0  0
    5.3794    2.6249   -0.7371 C   0  0  0  0  0  0  0  0  0  0  0  0
    6.4762    2.0745   -1.5486 N   0  0  0  0  0  0  0  0  0  0  0  0
    7.0531    0.8450   -1.3143 C   0  0  0  0  0  0  0  0  0  0  0  0
    7.9156    0.3716   -2.0525 O   0  0  0  0  0  0  0  0  0  0  0  0
    6.6855    0.0015   -0.1199 C   0  0  0  0  0  0  0  0  0  0  0  0
    7.0675   -1.3368   -0.0804 C   0  0  0  0  0  0  0  0  0  0  0  0
    6.6668   -1.8054    1.1445 N   0  0  0  0  0  0  0  0  0  0  0  0
    6.7913   -3.0449    1.7547 C   0  0  0  0  0  0  0  0  0  0  0  0
    7.4189   -4.1622    0.9635 C   0  0  0  0  0  0  0  0  0  0  0  0
    7.3592   -4.1951   -0.2565 O   0  0  0  0  0  0  0  0  0  0  0  0
    8.0406   -5.1217    1.7112 N   0  0  0  0  0  0  0  0  0  0  0  0
    8.6753   -6.2888    1.1171 C   0  0  0  0  0  0  0  0  0  0  0  0
    7.9191   -7.6201    1.3077 C   0  0  2  0  0  0  0  0  0  0  0  0
    6.5056   -7.5648    0.6813 C   0  0  0  0  0  0  0  0  0  0  0  0
    5.7899   -8.9204    0.8440 C   0  0  1  0  0  0  0  0  0  0  0  0
    6.6065  -10.0204    0.1384 C   0  0  0  0  0  0  0  0  0  0  0  0
    8.0112  -10.1007    0.7671 C   0  0  2  0  0  0  0  0  0  0  0  0
    7.8849  -10.4379    2.2658 C   0  0  0  0  0  0  0  0  0  0  0  0
    7.0675   -9.3392    2.9732 C   0  0  2  0  0  0  0  0  0  0  0  0
    5.6633   -9.2570    2.3428 C   0  0  0  0  0  0  0  0  0  0  0  0
    7.7823   -7.9839    2.8057 C   0  0  0  0  0  0  0  0  0  0  0  0
    8.7218   -8.7429    0.6067 C   0  0  0  0  0  0  0  0  0  0  0  0
    6.2735   -3.1993    3.0227 C   0  0  0  0  0  0  0  0  0  0  0  0
    5.6441   -2.1263    3.7113 C   0  0  0  0  0  0  0  0  0  0  0  0
    5.5401   -0.8938    3.1101 C   0  0  0  0  0  0  0  0  0  0  0  0
    6.0555   -0.7108    1.8060 C   0  0  0  0  0  0  0  0  0  0  0  0
    6.0693    0.3690    1.0402 N   0  0  0  0  0  0  0  0  0  0  0  0
    7.0688    2.8483   -2.6661 C   0  0  1  0  0  0  0  0  0  0  0  0
    6.0505    3.4013   -3.6915 C   0  0  0  0  0  0  0  0  0  0  0  0
    5.5045    4.8018   -3.3957 C   0  0  0  0  0  0  0  0  0  0  0  0
    6.6153    5.7112   -3.1501 N   0  0  0  0  0  0  0  0  0  0  0  0
    7.4128    5.3199   -1.9972 C   0  0  0  0  0  0  0  0  0  0  0  0
    8.1080    3.9546   -2.2240 C   0  0  1  0  0  0  0  0  0  0  0  0
    8.8511    3.5465   -0.9434 C   0  0  0  0  0  0  0  0  0  0  0  0
    9.1402    4.1110   -3.3613 C   0  0  0  0  0  0  0  0  0  0  0  0
    0.7263   -0.4598   -2.3091 H   0  0  0  0  0  0  0  0  0  0  0  0
    1.7061   -1.0277   -0.9187 H   0  0  0  0  0  0  0  0  0  0  0  0
    2.3665   -1.1329   -2.5798 H   0  0  0  0  0  0  0  0  0  0  0  0
    4.2429    0.2985   -1.9230 H   0  0  0  0  0  0  0  0  0  0  0  0
    3.5990    0.4199   -0.2676 H   0  0  0  0  0  0  0  0  0  0  0  0
    3.2575    2.8633   -0.5455 H   0  0  0  0  0  0  0  0  0  0  0  0
    3.7729    2.7694   -2.2260 H   0  0  0  0  0  0  0  0  0  0  0  0
    5.4866    2.2516    0.2866 H   0  0  0  0  0  0  0  0  0  0  0  0
    5.5163    3.7129   -0.6896 H   0  0  0  0  0  0  0  0  0  0  0  0
    7.5611   -1.9575   -0.8165 H   0  0  0  0  0  0  0  0  0  0  0  0
    8.1716   -4.9481    2.6991 H   0  0  0  0  0  0  0  0  0  0  0  0
    9.6907   -6.3899    1.5392 H   0  0  0  0  0  0  0  0  0  0  0  0
    8.7795   -6.0737    0.0440 H   0  0  0  0  0  0  0  0  0  0  0  0
    6.5823   -7.2951   -0.3857 H   0  0  0  0  0  0  0  0  0  0  0  0
    5.9141   -6.7685    1.1640 H   0  0  0  0  0  0  0  0  0  0  0  0
    4.7854   -8.8568    0.3924 H   0  0  0  0  0  0  0  0  0  0  0  0
    6.6849   -9.8015   -0.9406 H   0  0  0  0  0  0  0  0  0  0  0  0
    6.0937  -10.9937    0.2296 H   0  0  0  0  0  0  0  0  0  0  0  0
    8.6017  -10.8824    0.2596 H   0  0  0  0  0  0  0  0  0  0  0  0
    8.8863  -10.5208    2.7232 H   0  0  0  0  0  0  0  0  0  0  0  0
    7.3941  -11.4180    2.3949 H   0  0  0  0  0  0  0  0  0  0  0  0
    6.9797   -9.5757    4.0475 H   0  0  0  0  0  0  0  0  0  0  0  0
    5.0606   -8.4871    2.8559 H   0  0  0  0  0  0  0  0  0  0  0  0
    5.1326  -10.2157    2.4746 H   0  0  0  0  0  0  0  0  0  0  0  0
    8.7834   -8.0244    3.2728 H   0  0  0  0  0  0  0  0  0  0  0  0
    7.2129   -7.1973    3.3328 H   0  0  0  0  0  0  0  0  0  0  0  0
    8.8387   -8.4999   -0.4641 H   0  0  0  0  0  0  0  0  0  0  0  0
    9.7401   -8.7966    1.0324 H   0  0  0  0  0  0  0  0  0  0  0  0
    6.3233   -4.1819    3.4928 H   0  0  0  0  0  0  0  0  0  0  0  0
    5.2413   -2.2917    4.7124 H   0  0  0  0  0  0  0  0  0  0  0  0
    5.0678   -0.0392    3.5960 H   0  0  0  0  0  0  0  0  0  0  0  0
    7.6556    2.0879   -3.1911 H   0  0  0  0  0  0  0  0  0  0  0  0
    5.2310    2.6806   -3.8313 H   0  0  0  0  0  0  0  0  0  0  0  0
    6.5734    3.4583   -4.6594 H   0  0  0  0  0  0  0  0  0  0  0  0
    4.7825    4.7717   -2.5495 H   0  0  0  0  0  0  0  0  0  0  0  0
    4.9382    5.1595   -4.2717 H   0  0  0  0  0  0  0  0  0  0  0  0
    6.2848    6.6681   -3.0497 H   0  0  0  0  0  0  0  0  0  0  0  0
    6.8155    5.2753   -1.0578 H   0  0  0  0  0  0  0  0  0  0  0  0
    8.1889    6.0863   -1.8307 H   0  0  0  0  0  0  0  0  0  0  0  0
    8.1765    3.4639   -0.0778 H   0  0  0  0  0  0  0  0  0  0  0  0
    9.6214    4.2962   -0.6973 H   0  0  0  0  0  0  0  0  0  0  0  0
    9.3536    2.5760   -1.0728 H   0  0  0  0  0  0  0  0  0  0  0  0
    8.6697    4.4691   -4.2873 H   0  0  0  0  0  0  0  0  0  0  0  0
    9.6487    3.1555   -3.5654 H   0  0  0  0  0  0  0  0  0  0  0  0
    9.9093    4.8492   -3.0796 H   0  0  0  0  0  0  0  0  0  0  0  0
  1  2  1  0
  1 40  1  0
  1 41  1  0
  1 42  1  0
  2  3  1  0
  3  4  1  0
  3 43  1  0
  3 44  1  0
  4  5  1  0
  4 45  1  0
  4 46  1  0
  5  6  1  0
  5 47  1  0
  5 48  1  0
  6  7  1  0
  6 32  1  0
  7  8  2  0
  7  9  1  0
  9 10  2  0
  9 31  1  0
 10 11  1  0
 10 49  1  0
 11 12  1  0
 11 30  1  0
 12 13  1  0
 12 27  2  0
 13 14  2  0
 13 15  1  0
 15 16  1  0
 15 50  1  0
 17 16  1  1
 16 51  1  0
 16 52  1  0
 17 18  1  0
 17 25  1  0
 17 26  1  0
 18 19  1  0
 18 53  1  0
 18 54  1  0
 19 20  1  0
 19 24  1  0
 19 55  1  6
 20 21  1  0
 20 56  1  0
 20 57  1  0
 21 22  1  0
 21 26  1  0
 21 58  1  6
 22 23  1  0
 22 59  1  0
 22 60  1  0
 23 24  1  0
 23 25  1  0
 23 61  1  1
 24 62  1  0
 24 63  1  0
 25 64  1  0
 25 65  1  0
 26 66  1  0
 26 67  1  0
 27 28  1  0
 27 68  1  0
 28 29  2  0
 28 69  1  0
 29 30  1  0
 29 70  1  0
 30 31  2  0
 32 33  1  0
 32 37  1  0
 32 71  1  6
 33 34  1  0
 33 72  1  0
 33 73  1  0
 34 35  1  0
 34 74  1  0
 34 75  1  0
 35 36  1  0
 35 76  1  0
 36 37  1  0
 36 77  1  0
 36 78  1  0
 37 38  1  1
 37 39  1  0
 38 79  1  0
 38 80  1  0
 38 81  1  0
 39 82  1  0
 39 83  1  0
 39 84  1  0
M  END

