
     RDKit          3D

 52 52  0  0  0  0  0  0  0  0999 V2000
    0.9557   -0.4345    2.8925 C   0  0  0  0  0  0  0  0  0  0  0  0
    2.4754   -0.4902    2.7221 C   0  0  0  0  0  0  0  0  0  0  0  0
    2.9600   -0.8666    1.3103 C   0  0  1  0  0  0  0  0  0  0  0  0
    2.5216    0.1487    0.2453 C   0  0  0  0  0  0  0  0  0  0  0  0
    4.4936   -1.0117    1.2532 C   0  0  0  0  0  0  0  0  0  0  0  0
    5.0716   -1.9599    2.2043 N   0  0  0  0  0  0  0  0  0  0  0  0
    4.6387   -3.3486    2.0690 C   0  0  0  0  0  0  0  0  0  0  0  0
    5.0108   -4.0607    0.7584 C   0  0  0  0  0  0  0  0  0  0  0  0
    6.4941   -1.7876    2.4601 C   0  0  0  0  0  0  0  0  0  0  0  0
    6.8927   -1.2340    3.8688 C   0  0  1  0  0  0  0  0  0  0  0  0
    8.3221   -1.4433    4.1911 N   0  0  0  0  0  0  0  0  0  0  0  0
    9.3646   -1.2950    3.1497 C   0  0  1  0  0  0  0  0  0  0  0  0
    9.4733    0.1380    2.6204 C   0  0  0  0  0  0  0  0  0  0  0  0
   10.6931   -1.7572    3.7537 C   0  0  0  0  0  0  0  0  0  0  0  0
    6.6155    0.2909    4.0233 C   0  0  0  0  0  0  0  0  0  0  0  0
    5.7432    0.8940    3.4507 O   0  0  0  0  0  0  0  0  0  0  0  0
    7.4196    0.8687    4.9199 O   0  0  0  0  0  0  0  0  0  0  0  0
    6.0111   -1.8932    4.9449 C   0  0  1  0  0  0  0  0  0  0  0  0
    6.3051   -3.2274    5.5860 C   0  0  0  0  0  0  0  0  0  0  0  0
    6.3743   -1.9593    6.4034 C   0  0  0  0  0  0  0  0  0  0  0  0
    0.6835   -0.2370    3.9420 H   0  0  0  0  0  0  0  0  0  0  0  0
    0.4812   -1.3885    2.6032 H   0  0  0  0  0  0  0  0  0  0  0  0
    0.4937    0.3597    2.2843 H   0  0  0  0  0  0  0  0  0  0  0  0
    2.8910   -1.2231    3.4325 H   0  0  0  0  0  0  0  0  0  0  0  0
    2.9270    0.4770    3.0044 H   0  0  0  0  0  0  0  0  0  0  0  0
    2.5003   -1.8378    1.0419 H   0  0  0  0  0  0  0  0  0  0  0  0
    2.9098    1.1552    0.4778 H   0  0  0  0  0  0  0  0  0  0  0  0
    1.4259    0.2212    0.1731 H   0  0  0  0  0  0  0  0  0  0  0  0
    2.8979   -0.1307   -0.7526 H   0  0  0  0  0  0  0  0  0  0  0  0
    4.9265   -0.0288    1.4820 H   0  0  0  0  0  0  0  0  0  0  0  0
    4.7797   -1.2564    0.2048 H   0  0  0  0  0  0  0  0  0  0  0  0
    3.5442   -3.3895    2.1989 H   0  0  0  0  0  0  0  0  0  0  0  0
    5.0536   -3.9141    2.9193 H   0  0  0  0  0  0  0  0  0  0  0  0
    4.5441   -3.5822   -0.1169 H   0  0  0  0  0  0  0  0  0  0  0  0
    4.6703   -5.1089    0.7824 H   0  0  0  0  0  0  0  0  0  0  0  0
    6.1010   -4.0701    0.5920 H   0  0  0  0  0  0  0  0  0  0  0  0
    6.9484   -1.1453    1.6867 H   0  0  0  0  0  0  0  0  0  0  0  0
    7.0028   -2.7636    2.3758 H   0  0  0  0  0  0  0  0  0  0  0  0
    8.4406   -2.3583    4.6204 H   0  0  0  0  0  0  0  0  0  0  0  0
    9.1489   -1.9541    2.2860 H   0  0  0  0  0  0  0  0  0  0  0  0
    9.7380    0.8448    3.4215 H   0  0  0  0  0  0  0  0  0  0  0  0
    8.5389    0.4905    2.1589 H   0  0  0  0  0  0  0  0  0  0  0  0
   10.2564    0.1854    1.8478 H   0  0  0  0  0  0  0  0  0  0  0  0
   10.9708   -1.1272    4.6143 H   0  0  0  0  0  0  0  0  0  0  0  0
   11.5005   -1.6997    3.0080 H   0  0  0  0  0  0  0  0  0  0  0  0
   10.6360   -2.8028    4.1009 H   0  0  0  0  0  0  0  0  0  0  0  0
    8.0863    0.1682    5.1261 H   0  0  0  0  0  0  0  0  0  0  0  0
    4.9588   -1.7095    4.7198 H   0  0  0  0  0  0  0  0  0  0  0  0
    7.2444   -3.7462    5.3646 H   0  0  0  0  0  0  0  0  0  0  0  0
    5.4657   -3.9120    5.7376 H   0  0  0  0  0  0  0  0  0  0  0  0
    7.3663   -1.6177    6.7113 H   0  0  0  0  0  0  0  0  0  0  0  0
    5.5891   -1.7600    7.1377 H   0  0  0  0  0  0  0  0  0  0  0  0
  1  2  1  0
  1 21  1  0
  1 22  1  0
  1 23  1  0
  2  3  1  0
  2 24  1  0
  2 25  1  0
  3  4  1  0
  3  5  1  0
  3 26  1  6
  4 27  1  0
  4 28  1  0
  4 29  1  0
  5  6  1  0
  5 30  1  0
  5 31  1  0
  6  7  1  0
  6  9  1  0
  7  8  1  0
  7 32  1  0
  7 33  1  0
  8 34  1  0
  8 35  1  0
  8 36  1  0
  9 10  1  0
  9 37  1  0
  9 38  1  0
 10 11  1  0
 10 15  1  6
 10 18  1  0
 11 12  1  0
 11 39  1  0
 12 13  1  0
 12 14  1  0
 12 40  1  6
 13 41  1  0
 13 42  1  0
 13 43  1  0
 14 44  1  0
 14 45  1  0
 14 46  1  0
 15 16  2  0
 15 17  1  0
 17 47  1  0
 18 19  1  0
 18 20  1  0
 18 48  1  1
 19 20  1  0
 19 49  1  0
 19 50  1  0
 20 51  1  0
 20 52  1  0
M  END

