
     RDKit          3D

 50 49  0  0  0  0  0  0  0  0999 V2000
    9.6742   -3.2259    9.1229 C   0  0  0  0  0  0  0  0  0  0  0  0
    9.1110   -1.8916    8.6318 C   0  0  0  0  0  0  0  0  0  0  0  0
    9.5020   -1.5534    7.1897 C   0  0  0  0  0  0  0  0  0  0  0  0
    8.9421   -0.2183    6.6904 C   0  0  0  0  0  0  0  0  0  0  0  0
    9.3327    0.1186    5.2483 C   0  0  0  0  0  0  0  0  0  0  0  0
    8.7734    1.4549    4.7506 C   0  0  0  0  0  0  0  0  0  0  0  0
    9.1681    1.7800    3.3064 C   0  0  0  0  0  0  0  0  0  0  0  0
    8.5878    3.1022    2.7704 C   0  0  2  0  0  0  0  0  0  0  0  0
    7.4914    3.0887    2.8860 H   0  0  0  0  0  0  0  0  0  0  0  0
    8.9180    3.3541    1.2796 C   0  0  0  0  0  0  0  0  0  0  0  0
    8.2471    2.3798    0.3093 C   0  0  0  0  0  0  0  0  0  0  0  0
    9.0434    4.2977    3.5953 C   0  0  0  0  0  0  0  0  0  0  0  0
    8.3092    5.0940    4.1291 O   0  0  0  0  0  0  0  0  0  0  0  0
   10.3911    4.3878    3.6350 O   0  0  0  0  0  0  0  0  0  0  0  0
   10.9675    5.4973    4.3460 C   0  0  0  0  0  0  0  0  0  0  0  0
   11.1794    5.1640    5.8191 C   0  0  0  0  0  0  0  0  0  0  0  0
   11.9733    6.2254    6.6037 C   0  0  1  0  0  0  0  0  0  0  0  0
   11.2582    7.5834    6.6533 C   0  0  0  0  0  0  0  0  0  0  0  0
   12.2824    5.7209    8.0191 C   0  0  0  0  0  0  0  0  0  0  0  0
    9.3732   -3.4360   10.1617 H   0  0  0  0  0  0  0  0  0  0  0  0
   10.7768   -3.2330    9.0884 H   0  0  0  0  0  0  0  0  0  0  0  0
    9.3215   -4.0643    8.4987 H   0  0  0  0  0  0  0  0  0  0  0  0
    9.4515   -1.0791    9.2996 H   0  0  0  0  0  0  0  0  0  0  0  0
    8.0088   -1.9032    8.7151 H   0  0  0  0  0  0  0  0  0  0  0  0
    9.1610   -2.3656    6.5204 H   0  0  0  0  0  0  0  0  0  0  0  0
   10.6050   -1.5415    7.1051 H   0  0  0  0  0  0  0  0  0  0  0  0
    9.2835    0.5935    7.3594 H   0  0  0  0  0  0  0  0  0  0  0  0
    7.8395   -0.2301    6.7758 H   0  0  0  0  0  0  0  0  0  0  0  0
    8.9899   -0.6926    4.5789 H   0  0  0  0  0  0  0  0  0  0  0  0
   10.4352    0.1302    5.1616 H   0  0  0  0  0  0  0  0  0  0  0  0
    9.1173    2.2613    5.4235 H   0  0  0  0  0  0  0  0  0  0  0  0
    7.6712    1.4451    4.8356 H   0  0  0  0  0  0  0  0  0  0  0  0
    8.8305    0.9583    2.6527 H   0  0  0  0  0  0  0  0  0  0  0  0
   10.2676    1.8151    3.2199 H   0  0  0  0  0  0  0  0  0  0  0  0
   10.0131    3.3286    1.1495 H   0  0  0  0  0  0  0  0  0  0  0  0
    8.6030    4.3807    1.0240 H   0  0  0  0  0  0  0  0  0  0  0  0
    8.5866    1.3426    0.4564 H   0  0  0  0  0  0  0  0  0  0  0  0
    8.4737    2.6515   -0.7339 H   0  0  0  0  0  0  0  0  0  0  0  0
    7.1503    2.3913    0.4245 H   0  0  0  0  0  0  0  0  0  0  0  0
   10.3146    6.3724    4.2216 H   0  0  0  0  0  0  0  0  0  0  0  0
   11.9292    5.6884    3.8453 H   0  0  0  0  0  0  0  0  0  0  0  0
   11.7117    4.1987    5.8753 H   0  0  0  0  0  0  0  0  0  0  0  0
   10.1943    5.0147    6.2947 H   0  0  0  0  0  0  0  0  0  0  0  0
   12.9398    6.3711    6.0829 H   0  0  0  0  0  0  0  0  0  0  0  0
   10.2681    7.4895    7.1314 H   0  0  0  0  0  0  0  0  0  0  0  0
   11.1030    8.0132    5.6514 H   0  0  0  0  0  0  0  0  0  0  0  0
   11.8422    8.3141    7.2358 H   0  0  0  0  0  0  0  0  0  0  0  0
   11.3524    5.5510    8.5882 H   0  0  0  0  0  0  0  0  0  0  0  0
   12.8872    6.4510    8.5808 H   0  0  0  0  0  0  0  0  0  0  0  0
   12.8380    4.7693    7.9973 H   0  0  0  0  0  0  0  0  0  0  0  0
  1  2  1  0
  1 20  1  0
  1 21  1  0
  1 22  1  0
  2  3  1  0
  2 23  1  0
  2 24  1  0
  3  4  1  0
  3 25  1  0
  3 26  1  0
  4  5  1  0
  4 27  1  0
  4 28  1  0
  5  6  1  0
  5 29  1  0
  5 30  1  0
  6  7  1  0
  6 31  1  0
  6 32  1  0
  7  8  1  0
  7 33  1  0
  7 34  1  0
  8  9  1  6
  8 10  1  0
  8 12  1  0
 10 11  1  0
 10 35  1  0
 10 36  1  0
 11 37  1  0
 11 38  1  0
 11 39  1  0
 12 13  2  0
 12 14  1  0
 14 15  1  0
 15 16  1  0
 15 40  1  0
 15 41  1  0
 16 17  1  0
 16 42  1  0
 16 43  1  0
 17 18  1  0
 17 19  1  0
 17 44  1  6
 18 45  1  0
 18 46  1  0
 18 47  1  0
 19 48  1  0
 19 49  1  0
 19 50  1  0
M  END

