
     RDKit          3D

 39 40  0  0  0  0  0  0  0  0999 V2000
    1.3447   -0.4621   -0.2993 C   0  0  0  0  0  0  0  0  0  0  0  0
    2.6946    0.0523   -0.1349 N   0  0  0  0  0  0  0  0  0  0  0  0
    3.2474    0.7617   -1.2968 C   0  0  1  0  0  0  0  0  0  0  0  0
    2.5966    2.1570   -1.4317 C   0  0  0  0  0  0  0  0  0  0  0  0
    2.9048    2.9029   -2.7453 C   0  0  0  0  0  0  0  0  0  0  0  0
    2.2073    2.3597   -3.9636 C   0  0  0  0  0  0  0  0  0  0  0  0
    0.8663    2.5896   -4.3748 C   0  0  0  0  0  0  0  0  0  0  0  0
    0.5711    1.9489   -5.5020 N   0  0  0  0  0  0  0  0  0  0  0  0
    1.6951    1.2982   -5.8393 N   0  0  0  0  0  0  0  0  0  0  0  0
    1.7371    0.4915   -7.0411 C   0  0  0  0  0  0  0  0  0  0  0  0
    2.7019    1.5135   -4.9478 C   0  0  0  0  0  0  0  0  0  0  0  0
    4.7562    0.8690   -1.1270 C   0  0  0  0  0  0  0  0  0  0  0  0
    5.3176    1.2731    0.0977 C   0  0  0  0  0  0  0  0  0  0  0  0
    6.6962    1.3962    0.3071 C   0  0  0  0  0  0  0  0  0  0  0  0
    7.2908    1.8297    1.6214 C   0  0  0  0  0  0  0  0  0  0  0  0
    7.5268    1.0938   -0.7803 C   0  0  0  0  0  0  0  0  0  0  0  0
    8.8571    1.1994   -0.6231 F   0  0  0  0  0  0  0  0  0  0  0  0
    7.0325    0.6860   -2.0128 C   0  0  0  0  0  0  0  0  0  0  0  0
    5.6506    0.5805   -2.1603 C   0  0  0  0  0  0  0  0  0  0  0  0
    5.1808    0.1781   -3.3604 F   0  0  0  0  0  0  0  0  0  0  0  0
    1.0790   -1.0731    0.5774 H   0  0  0  0  0  0  0  0  0  0  0  0
    1.2018   -1.0862   -1.2093 H   0  0  0  0  0  0  0  0  0  0  0  0
    0.6119    0.3582   -0.3513 H   0  0  0  0  0  0  0  0  0  0  0  0
    3.3178   -0.7192    0.0975 H   0  0  0  0  0  0  0  0  0  0  0  0
    3.0495    0.2062   -2.2363 H   0  0  0  0  0  0  0  0  0  0  0  0
    2.9193    2.7688   -0.5729 H   0  0  0  0  0  0  0  0  0  0  0  0
    1.5040    2.0476   -1.3421 H   0  0  0  0  0  0  0  0  0  0  0  0
    3.9939    2.9209   -2.9160 H   0  0  0  0  0  0  0  0  0  0  0  0
    2.6064    3.9561   -2.6118 H   0  0  0  0  0  0  0  0  0  0  0  0
    0.1108    3.2090   -3.8891 H   0  0  0  0  0  0  0  0  0  0  0  0
    0.7404    0.5311   -7.4964 H   0  0  0  0  0  0  0  0  0  0  0  0
    1.9876   -0.5555   -6.8069 H   0  0  0  0  0  0  0  0  0  0  0  0
    2.4776    0.8826   -7.7574 H   0  0  0  0  0  0  0  0  0  0  0  0
    3.6827    1.0578   -5.0646 H   0  0  0  0  0  0  0  0  0  0  0  0
    4.6340    1.4827    0.9239 H   0  0  0  0  0  0  0  0  0  0  0  0
    6.5045    2.0051    2.3692 H   0  0  0  0  0  0  0  0  0  0  0  0
    7.8733    2.7593    1.5114 H   0  0  0  0  0  0  0  0  0  0  0  0
    7.9824    1.0696    2.0201 H   0  0  0  0  0  0  0  0  0  0  0  0
    7.7042    0.4529   -2.8394 H   0  0  0  0  0  0  0  0  0  0  0  0
  1  2  1  0
  1 21  1  0
  1 22  1  0
  1 23  1  0
  2  3  1  0
  2 24  1  0
  3  4  1  0
  3 12  1  0
  3 25  1  6
  4  5  1  0
  4 26  1  0
  4 27  1  0
  5  6  1  0
  5 28  1  0
  5 29  1  0
  6  7  1  0
  6 11  2  0
  7  8  2  0
  7 30  1  0
  8  9  1  0
  9 10  1  0
  9 11  1  0
 10 31  1  0
 10 32  1  0
 10 33  1  0
 11 34  1  0
 12 13  2  0
 12 19  1  0
 13 14  1  0
 13 35  1  0
 14 15  1  0
 14 16  2  0
 15 36  1  0
 15 37  1  0
 15 38  1  0
 16 17  1  0
 16 18  1  0
 18 19  2  0
 18 39  1  0
 19 20  1  0
M  END

