
     RDKit          3D

 46 49  0  0  0  0  0  0  0  0999 V2000
    0.9862   -0.5199   -0.2244 C   0  0  0  0  0  0  0  0  0  0  0  0
    2.4889   -0.4731   -0.4751 C   0  0  1  0  0  0  0  0  0  0  0  0
    3.1281    0.9080   -0.2348 C   0  0  0  0  0  0  0  0  0  0  0  0
    4.6031    0.6133    0.1636 C   0  0  2  0  0  0  0  0  0  0  0  0
    5.6118    1.1612   -0.7266 N   0  0  0  0  0  0  0  0  0  0  0  0
    6.3584    2.2684   -0.3880 C   0  0  0  0  0  0  0  0  0  0  0  0
    6.2980    2.8185    0.7006 O   0  0  0  0  0  0  0  0  0  0  0  0
    7.1996    2.7165   -1.3993 N   0  0  0  0  0  0  0  0  0  0  0  0
    8.1413    3.7901   -1.1466 C   0  0  2  0  0  0  0  0  0  0  0  0
    8.4692    4.5600   -2.4342 C   0  0  0  0  0  0  0  0  0  0  0  0
    9.3488    5.7849   -2.1394 C   0  0  0  0  0  0  0  0  0  0  0  0
   10.4789    5.4281   -1.2249 C   0  0  0  0  0  0  0  0  0  0  0  0
   11.5954    6.0947   -0.9814 N   0  0  0  0  0  0  0  0  0  0  0  0
   12.2176    5.3159   -0.0567 C   0  0  0  0  0  0  0  0  0  0  0  0
   11.5617    4.2174    0.2861 N   0  0  0  0  0  0  0  0  0  0  0  0
   10.4458    4.3023   -0.4647 N   0  0  0  0  0  0  0  0  0  0  0  0
    9.4259    3.2662   -0.4739 C   0  0  0  0  0  0  0  0  0  0  0  0
    4.6603   -0.9282    0.2290 C   0  0  0  0  0  0  0  0  0  0  0  0
    3.2759   -1.3390    0.4108 N   0  0  0  0  0  0  0  0  0  0  0  0
    3.0569   -2.7491    0.3042 C   0  0  1  0  0  0  0  0  0  0  0  0
    3.4647   -3.6258    1.4592 C   0  0  0  0  0  0  0  0  0  0  0  0
    2.0046   -3.4144    1.1552 C   0  0  0  0  0  0  0  0  0  0  0  0
    0.4690    0.1977   -0.8811 H   0  0  0  0  0  0  0  0  0  0  0  0
    0.7610   -0.2566    0.8217 H   0  0  0  0  0  0  0  0  0  0  0  0
    0.5700   -1.5180   -0.4256 H   0  0  0  0  0  0  0  0  0  0  0  0
    2.6697   -0.7658   -1.5398 H   0  0  0  0  0  0  0  0  0  0  0  0
    2.6078    1.4205    0.5888 H   0  0  0  0  0  0  0  0  0  0  0  0
    3.0658    1.5613   -1.1181 H   0  0  0  0  0  0  0  0  0  0  0  0
    4.8221    1.0550    1.1432 H   0  0  0  0  0  0  0  0  0  0  0  0
    5.5676    0.8905   -1.7030 H   0  0  0  0  0  0  0  0  0  0  0  0
    7.4308    2.0730   -2.1495 H   0  0  0  0  0  0  0  0  0  0  0  0
    7.6424    4.4689   -0.4376 H   0  0  0  0  0  0  0  0  0  0  0  0
    7.5315    4.8692   -2.9199 H   0  0  0  0  0  0  0  0  0  0  0  0
    8.9920    3.8871   -3.1395 H   0  0  0  0  0  0  0  0  0  0  0  0
    8.7415    6.5761   -1.6641 H   0  0  0  0  0  0  0  0  0  0  0  0
    9.7565    6.2234   -3.0626 H   0  0  0  0  0  0  0  0  0  0  0  0
   13.1851    5.5628    0.3807 H   0  0  0  0  0  0  0  0  0  0  0  0
    9.2187    2.9601    0.5611 H   0  0  0  0  0  0  0  0  0  0  0  0
    9.8082    2.3861   -1.0220 H   0  0  0  0  0  0  0  0  0  0  0  0
    5.2997   -1.3056    1.0412 H   0  0  0  0  0  0  0  0  0  0  0  0
    5.0853   -1.3194   -0.7268 H   0  0  0  0  0  0  0  0  0  0  0  0
    3.2067   -3.1790   -0.7046 H   0  0  0  0  0  0  0  0  0  0  0  0
    3.8687   -3.1221    2.3415 H   0  0  0  0  0  0  0  0  0  0  0  0
    3.9169   -4.5969    1.2397 H   0  0  0  0  0  0  0  0  0  0  0  0
    1.4382   -2.7746    1.8359 H   0  0  0  0  0  0  0  0  0  0  0  0
    1.4324   -4.2380    0.7181 H   0  0  0  0  0  0  0  0  0  0  0  0
  1  2  1  0
  1 23  1  0
  1 24  1  0
  1 25  1  0
  2  3  1  0
  2 19  1  0
  2 26  1  6
  3  4  1  0
  3 27  1  0
  3 28  1  0
  4  5  1  0
  4 18  1  0
  4 29  1  1
  5  6  1  0
  5 30  1  0
  6  7  2  0
  6  8  1  0
  8  9  1  0
  8 31  1  0
  9 10  1  0
  9 17  1  0
  9 32  1  1
 10 11  1  0
 10 33  1  0
 10 34  1  0
 11 12  1  0
 11 35  1  0
 11 36  1  0
 12 13  2  0
 12 16  1  0
 13 14  1  0
 14 15  2  0
 14 37  1  0
 15 16  1  0
 16 17  1  0
 17 38  1  0
 17 39  1  0
 18 19  1  0
 18 40  1  0
 18 41  1  0
 19 20  1  0
 20 21  1  0
 20 22  1  0
 20 42  1  6
 21 22  1  0
 21 43  1  0
 21 44  1  0
 22 45  1  0
 22 46  1  0
M  END

