
     RDKit          3D

 41 43  0  0  0  0  0  0  0  0999 V2000
    7.4421   -0.7073   -0.1961 C   0  0  0  0  0  0  0  0  0  0  0  0
    6.6025   -0.1484    0.9534 C   0  0  0  0  0  0  0  0  0  0  0  0
    5.1748    0.2515    0.5361 C   0  0  1  0  0  0  0  0  0  0  0  0
    4.3574   -0.8271   -0.0202 N   0  0  0  0  0  0  0  0  0  0  0  0
    4.3573    0.8488    1.7000 C   0  0  0  0  0  0  0  0  0  0  0  0
    4.9438    2.0100    2.3548 N   0  0  0  0  0  0  0  0  0  0  0  0
    4.8988    3.3448    1.9851 C   0  0  0  0  0  0  0  0  0  0  0  0
    4.2231    3.8393    0.7389 C   0  0  0  0  0  0  0  0  0  0  0  0
    5.1224    3.9046   -0.4911 C   0  0  0  0  0  0  0  0  0  0  0  0
    4.6901    3.3886   -1.7212 C   0  0  0  0  0  0  0  0  0  0  0  0
    5.4996    3.4775   -2.8589 C   0  0  0  0  0  0  0  0  0  0  0  0
    6.7563    4.0827   -2.7787 C   0  0  0  0  0  0  0  0  0  0  0  0
    7.1957    4.6009   -1.5555 C   0  0  0  0  0  0  0  0  0  0  0  0
    6.3858    4.5139   -0.4207 C   0  0  0  0  0  0  0  0  0  0  0  0
    5.5175    4.1422    2.8330 N   0  0  0  0  0  0  0  0  0  0  0  0
    5.9997    3.3185    3.8232 C   0  0  0  0  0  0  0  0  0  0  0  0
    6.7231    3.5733    4.9936 C   0  0  0  0  0  0  0  0  0  0  0  0
    7.0219    2.4605    5.7819 C   0  0  0  0  0  0  0  0  0  0  0  0
    7.9230    2.6543    7.2689 Cl  0  0  0  0  0  0  0  0  0  0  0  0
    6.6073    1.1632    5.4067 C   0  0  0  0  0  0  0  0  0  0  0  0
    5.9198    0.9115    4.2918 N   0  0  0  0  0  0  0  0  0  0  0  0
    5.6462    1.9730    3.5478 C   0  0  0  0  0  0  0  0  0  0  0  0
    8.4553   -0.9737    0.1431 H   0  0  0  0  0  0  0  0  0  0  0  0
    7.5465    0.0289   -1.0109 H   0  0  0  0  0  0  0  0  0  0  0  0
    6.9906   -1.6175   -0.6238 H   0  0  0  0  0  0  0  0  0  0  0  0
    7.1127    0.7324    1.3777 H   0  0  0  0  0  0  0  0  0  0  0  0
    6.5403   -0.8849    1.7753 H   0  0  0  0  0  0  0  0  0  0  0  0
    5.2539    1.0241   -0.2485 H   0  0  0  0  0  0  0  0  0  0  0  0
    4.3901   -1.6493    0.5863 H   0  0  0  0  0  0  0  0  0  0  0  0
    4.7132   -1.1239   -0.9271 H   0  0  0  0  0  0  0  0  0  0  0  0
    4.2285    0.0867    2.4845 H   0  0  0  0  0  0  0  0  0  0  0  0
    3.3577    1.1058    1.3220 H   0  0  0  0  0  0  0  0  0  0  0  0
    3.8635    4.8534    0.9749 H   0  0  0  0  0  0  0  0  0  0  0  0
    3.3376    3.2265    0.5135 H   0  0  0  0  0  0  0  0  0  0  0  0
    3.7075    2.9126   -1.7927 H   0  0  0  0  0  0  0  0  0  0  0  0
    5.1454    3.0708   -3.8098 H   0  0  0  0  0  0  0  0  0  0  0  0
    7.3910    4.1524   -3.6658 H   0  0  0  0  0  0  0  0  0  0  0  0
    8.1763    5.0789   -1.4848 H   0  0  0  0  0  0  0  0  0  0  0  0
    6.7279    4.9205    0.5344 H   0  0  0  0  0  0  0  0  0  0  0  0
    7.0330    4.5801    5.2773 H   0  0  0  0  0  0  0  0  0  0  0  0
    6.8555    0.3152    6.0520 H   0  0  0  0  0  0  0  0  0  0  0  0
  1  2  1  0
  1 23  1  0
  1 24  1  0
  1 25  1  0
  2  3  1  0
  2 26  1  0
  2 27  1  0
  3  4  1  0
  3  5  1  0
  3 28  1  6
  4 29  1  0
  4 30  1  0
  5  6  1  0
  5 31  1  0
  5 32  1  0
  6  7  1  0
  6 22  1  0
  7  8  1  0
  7 15  2  0
  8  9  1  0
  8 33  1  0
  8 34  1  0
  9 10  2  0
  9 14  1  0
 10 11  1  0
 10 35  1  0
 11 12  2  0
 11 36  1  0
 12 13  1  0
 12 37  1  0
 13 14  2  0
 13 38  1  0
 14 39  1  0
 15 16  1  0
 16 17  1  0
 16 22  2  0
 17 18  2  0
 17 40  1  0
 18 19  1  0
 18 20  1  0
 20 21  2  0
 20 41  1  0
 21 22  1  0
M  END

