
     RDKit          3D

 51 54  0  0  0  0  0  0  0  0999 V2000
    1.1105    0.3080   -0.4263 O   0  0  0  0  0  0  0  0  0  0  0  0
    2.3192    0.1733   -0.3063 C   0  0  0  0  0  0  0  0  0  0  0  0
    2.9554   -1.1677   -0.5745 C   0  0  0  0  0  0  0  0  0  0  0  0
    4.0823   -1.3213   -1.3983 C   0  0  0  0  0  0  0  0  0  0  0  0
    4.5679   -2.5963   -1.7014 C   0  0  0  0  0  0  0  0  0  0  0  0
    3.9384   -3.7291   -1.1770 C   0  0  0  0  0  0  0  0  0  0  0  0
    2.8081   -3.5838   -0.3655 C   0  0  0  0  0  0  0  0  0  0  0  0
    2.3106   -2.3116   -0.0788 C   0  0  0  0  0  0  0  0  0  0  0  0
    3.1388    1.2333    0.0310 N   0  0  0  0  0  0  0  0  0  0  0  0
    4.4531    1.1306    0.6614 C   0  0  0  0  0  0  0  0  0  0  0  0
    5.4009    2.2013    0.1217 C   0  0  0  0  0  0  0  0  0  0  0  0
    4.7974    3.5222    0.2665 N   0  0  0  0  0  0  0  0  0  0  0  0
    5.6306    4.5861    0.5659 C   0  0  0  0  0  0  0  0  0  0  0  0
    6.8435    4.4459    0.6372 O   0  0  0  0  0  0  0  0  0  0  0  0
    5.0089    5.9248    0.8529 C   0  0  0  0  0  0  0  0  0  0  0  0
    3.8670    6.0972    1.6518 C   0  0  0  0  0  0  0  0  0  0  0  0
    3.3890    7.3636    1.9808 C   0  0  0  0  0  0  0  0  0  0  0  0
    4.0491    8.5159    1.5035 C   0  0  0  0  0  0  0  0  0  0  0  0
    3.5972    9.8153    1.8118 N   0  0  0  0  0  0  0  0  0  0  0  0
    4.3817   11.0040    1.4619 C   0  0  0  0  0  0  0  0  0  0  0  0
    3.6960   12.1453    2.2288 C   0  0  0  0  0  0  0  0  0  0  0  0
    2.2480   11.6719    2.3505 C   0  0  0  0  0  0  0  0  0  0  0  0
    2.3470   10.1495    2.3347 C   0  0  0  0  0  0  0  0  0  0  0  0
    1.4817    9.3783    2.6888 O   0  0  0  0  0  0  0  0  0  0  0  0
    5.2035    8.3461    0.7104 C   0  0  0  0  0  0  0  0  0  0  0  0
    5.6790    7.0726    0.4087 C   0  0  0  0  0  0  0  0  0  0  0  0
    3.4832    3.6249   -0.3655 C   0  0  0  0  0  0  0  0  0  0  0  0
    2.5344    2.5546    0.1730 C   0  0  0  0  0  0  0  0  0  0  0  0
    4.5671   -0.4409   -1.8271 H   0  0  0  0  0  0  0  0  0  0  0  0
    5.4378   -2.7051   -2.3542 H   0  0  0  0  0  0  0  0  0  0  0  0
    4.3227   -4.7257   -1.4092 H   0  0  0  0  0  0  0  0  0  0  0  0
    2.3059   -4.4672    0.0370 H   0  0  0  0  0  0  0  0  0  0  0  0
    1.4101   -2.1880    0.5264 H   0  0  0  0  0  0  0  0  0  0  0  0
    4.8761    0.1331    0.5000 H   0  0  0  0  0  0  0  0  0  0  0  0
    4.3443    1.2732    1.7547 H   0  0  0  0  0  0  0  0  0  0  0  0
    5.6258    1.9983   -0.9442 H   0  0  0  0  0  0  0  0  0  0  0  0
    6.3534    2.1977    0.6657 H   0  0  0  0  0  0  0  0  0  0  0  0
    3.3505    5.2243    2.0582 H   0  0  0  0  0  0  0  0  0  0  0  0
    2.5049    7.4752    2.6026 H   0  0  0  0  0  0  0  0  0  0  0  0
    4.3619   11.1739    0.3690 H   0  0  0  0  0  0  0  0  0  0  0  0
    5.4337   10.8741    1.7570 H   0  0  0  0  0  0  0  0  0  0  0  0
    3.8093   13.1114    1.7170 H   0  0  0  0  0  0  0  0  0  0  0  0
    4.1474   12.2430    3.2288 H   0  0  0  0  0  0  0  0  0  0  0  0
    1.6345   11.9740    1.4831 H   0  0  0  0  0  0  0  0  0  0  0  0
    1.7195   12.0064    3.2538 H   0  0  0  0  0  0  0  0  0  0  0  0
    5.7437    9.2091    0.3223 H   0  0  0  0  0  0  0  0  0  0  0  0
    6.5911    6.9561   -0.1801 H   0  0  0  0  0  0  0  0  0  0  0  0
    3.5928    3.4821   -1.4591 H   0  0  0  0  0  0  0  0  0  0  0  0
    3.0595    4.6222   -0.2055 H   0  0  0  0  0  0  0  0  0  0  0  0
    1.5832    2.5567   -0.3732 H   0  0  0  0  0  0  0  0  0  0  0  0
    2.3089    2.7570    1.2385 H   0  0  0  0  0  0  0  0  0  0  0  0
  1  2  2  0
  2  3  1  0
  2  9  1  0
  3  4  2  0
  3  8  1  0
  4  5  1  0
  4 29  1  0
  5  6  2  0
  5 30  1  0
  6  7  1  0
  6 31  1  0
  7  8  2  0
  7 32  1  0
  8 33  1  0
  9 10  1  0
  9 28  1  0
 10 11  1  0
 10 34  1  0
 10 35  1  0
 11 12  1  0
 11 36  1  0
 11 37  1  0
 12 13  1  0
 12 27  1  0
 13 14  2  0
 13 15  1  0
 15 16  2  0
 15 26  1  0
 16 17  1  0
 16 38  1  0
 17 18  2  0
 17 39  1  0
 18 19  1  0
 18 25  1  0
 19 20  1  0
 19 23  1  0
 20 21  1  0
 20 40  1  0
 20 41  1  0
 21 22  1  0
 21 42  1  0
 21 43  1  0
 22 23  1  0
 22 44  1  0
 22 45  1  0
 23 24  2  0
 25 26  2  0
 25 46  1  0
 26 47  1  0
 27 28  1  0
 27 48  1  0
 27 49  1  0
 28 50  1  0
 28 51  1  0
M  END

