
     RDKit          3D

 46 49  0  0  0  0  0  0  0  0999 V2000
    2.2660    1.7199    0.8471 C   0  0  0  0  0  0  0  0  0  0  0  0
    3.2497    0.7576    0.3958 N   0  0  0  0  0  0  0  0  0  0  0  0
    3.0140   -0.1927   -0.6098 C   0  0  0  0  0  0  0  0  0  0  0  0
    1.9803   -0.3313   -1.2206 O   0  0  0  0  0  0  0  0  0  0  0  0
    4.2932   -0.9599   -0.7399 C   0  0  0  0  0  0  0  0  0  0  0  0
    4.6241   -2.0196   -1.5735 C   0  0  0  0  0  0  0  0  0  0  0  0
    5.9200   -2.5454   -1.4712 C   0  0  0  0  0  0  0  0  0  0  0  0
    6.8571   -2.0230   -0.5594 C   0  0  0  0  0  0  0  0  0  0  0  0
    8.2558   -2.5706   -0.3941 C   0  0  0  0  0  0  0  0  0  0  0  0
    8.8866   -2.3813    0.6335 O   0  0  0  0  0  0  0  0  0  0  0  0
    8.7510   -3.2658   -1.4657 N   0  0  0  0  0  0  0  0  0  0  0  0
   10.0057   -3.8769   -1.5448 C   0  0  0  0  0  0  0  0  0  0  0  0
   11.0314   -3.9782   -0.5698 C   0  0  0  0  0  0  0  0  0  0  0  0
   12.0411   -4.6924   -1.2058 C   0  0  0  0  0  0  0  0  0  0  0  0
   13.3759   -5.2002   -0.7093 C   0  0  1  0  0  0  0  0  0  0  0  0
   14.4684   -5.2152   -1.8045 C   0  0  0  0  0  0  0  0  0  0  0  0
   14.9517   -3.8075   -2.1784 C   0  0  0  0  0  0  0  0  0  0  0  0
   15.4448   -3.0420   -0.9431 C   0  0  0  0  0  0  0  0  0  0  0  0
   14.3763   -3.0019    0.1574 C   0  0  0  0  0  0  0  0  0  0  0  0
   13.8816   -4.4100    0.5172 C   0  0  0  0  0  0  0  0  0  0  0  0
   11.5706   -4.9528   -2.4576 N   0  0  0  0  0  0  0  0  0  0  0  0
   12.0430   -5.4555   -3.1973 H   0  0  0  0  0  0  0  0  0  0  0  0
   10.3369   -4.4681   -2.6887 N   0  0  0  0  0  0  0  0  0  0  0  0
    6.4935   -0.9614    0.2935 C   0  0  0  0  0  0  0  0  0  0  0  0
    5.2136   -0.4424    0.1776 C   0  0  0  0  0  0  0  0  0  0  0  0
    4.5487    0.6756    0.9222 C   0  0  0  0  0  0  0  0  0  0  0  0
    4.9899    1.3848    1.7944 O   0  0  0  0  0  0  0  0  0  0  0  0
    1.3499    1.5614    0.2636 H   0  0  0  0  0  0  0  0  0  0  0  0
    2.6301    2.7476    0.6962 H   0  0  0  0  0  0  0  0  0  0  0  0
    2.0520    1.5841    1.9184 H   0  0  0  0  0  0  0  0  0  0  0  0
    3.8962   -2.4310   -2.2759 H   0  0  0  0  0  0  0  0  0  0  0  0
    6.1851   -3.3995   -2.0993 H   0  0  0  0  0  0  0  0  0  0  0  0
    8.2191   -3.3028   -2.3273 H   0  0  0  0  0  0  0  0  0  0  0  0
   11.0098   -3.5753    0.4352 H   0  0  0  0  0  0  0  0  0  0  0  0
   13.2148   -6.2462   -0.3871 H   0  0  0  0  0  0  0  0  0  0  0  0
   14.1243   -5.7610   -2.7007 H   0  0  0  0  0  0  0  0  0  0  0  0
   15.3212   -5.8010   -1.4190 H   0  0  0  0  0  0  0  0  0  0  0  0
   14.1256   -3.2468   -2.6512 H   0  0  0  0  0  0  0  0  0  0  0  0
   15.7529   -3.8758   -2.9334 H   0  0  0  0  0  0  0  0  0  0  0  0
   15.7446   -2.0184   -1.2233 H   0  0  0  0  0  0  0  0  0  0  0  0
   16.3542   -3.5354   -0.5519 H   0  0  0  0  0  0  0  0  0  0  0  0
   13.5244   -2.3880   -0.1825 H   0  0  0  0  0  0  0  0  0  0  0  0
   14.7744   -2.5072    1.0590 H   0  0  0  0  0  0  0  0  0  0  0  0
   13.0962   -4.3608    1.2879 H   0  0  0  0  0  0  0  0  0  0  0  0
   14.7138   -4.9818    0.9645 H   0  0  0  0  0  0  0  0  0  0  0  0
    7.2148   -0.5789    1.0174 H   0  0  0  0  0  0  0  0  0  0  0  0
  1  2  1  0
  1 28  1  0
  1 29  1  0
  1 30  1  0
  2  3  1  0
  2 26  1  0
  3  4  2  0
  3  5  1  0
  5  6  2  0
  5 25  1  0
  6  7  1  0
  6 31  1  0
  7  8  2  0
  7 32  1  0
  8  9  1  0
  8 24  1  0
  9 10  2  0
  9 11  1  0
 11 12  1  0
 11 33  1  0
 12 13  1  0
 12 23  2  0
 13 14  2  0
 13 34  1  0
 14 15  1  0
 14 21  1  0
 15 16  1  0
 15 20  1  0
 15 35  1  1
 16 17  1  0
 16 36  1  0
 16 37  1  0
 17 18  1  0
 17 38  1  0
 17 39  1  0
 18 19  1  0
 18 40  1  0
 18 41  1  0
 19 20  1  0
 19 42  1  0
 19 43  1  0
 20 44  1  0
 20 45  1  0
 21 22  1  0
 21 23  1  0
 24 25  2  0
 24 46  1  0
 25 26  1  0
 26 27  2  0
M  END

