
     RDKit          3D

 66 70  0  0  0  0  0  0  0  0999 V2000
    0.9335    0.1510   -0.4707 O   0  0  0  0  0  0  0  0  0  0  0  0
    2.0598    0.2247   -0.0171 C   0  0  0  0  0  0  0  0  0  0  0  0
    2.5789   -0.6257    0.9251 N   0  0  0  0  0  0  0  0  0  0  0  0
    1.9677   -1.7227    1.5640 C   0  0  0  0  0  0  0  0  0  0  0  0
    2.7054   -2.4072    2.5454 C   0  0  0  0  0  0  0  0  0  0  0  0
    2.1515   -3.4977    3.2084 C   0  0  0  0  0  0  0  0  0  0  0  0
    0.8518   -3.9509    2.9362 C   0  0  0  0  0  0  0  0  0  0  0  0
    0.2811   -5.1659    3.6487 C   0  0  0  0  0  0  0  0  0  0  0  0
    0.9174   -5.4436    4.9266 N   0  0  0  0  0  0  0  0  0  0  0  0
    0.8287   -6.8329    5.3558 C   0  0  0  0  0  0  0  0  0  0  0  0
    1.8275   -7.0942    6.4822 C   0  0  0  0  0  0  0  0  0  0  0  0
    1.7569   -6.0432    7.5679 C   0  0  0  0  0  0  0  0  0  0  0  0
    2.3234   -6.2710    8.8323 C   0  0  0  0  0  0  0  0  0  0  0  0
    2.2814   -5.3007    9.8295 C   0  0  0  0  0  0  0  0  0  0  0  0
    1.6638   -4.0704    9.5678 C   0  0  0  0  0  0  0  0  0  0  0  0
    1.6653   -2.9899   10.6188 C   0  0  1  0  0  0  0  0  0  0  0  0
    1.5648   -3.4996   11.8600 F   0  0  0  0  0  0  0  0  0  0  0  0
    2.8033   -2.2666   10.5880 F   0  0  0  0  0  0  0  0  0  0  0  0
    0.6497   -2.1233   10.4540 F   0  0  0  0  0  0  0  0  0  0  0  0
    1.0949   -3.8330    8.3157 C   0  0  0  0  0  0  0  0  0  0  0  0
    1.1368   -4.8080    7.3101 C   0  0  0  0  0  0  0  0  0  0  0  0
    0.4747   -4.5363    5.9754 C   0  0  0  0  0  0  0  0  0  0  0  0
    0.1407   -3.2550    1.9450 C   0  0  0  0  0  0  0  0  0  0  0  0
   -1.4806   -3.7684    1.5030 Cl  0  0  0  0  0  0  0  0  0  0  0  0
    0.6688   -2.1576    1.2606 C   0  0  0  0  0  0  0  0  0  0  0  0
    3.0591    1.2838   -0.5553 C   0  0  1  0  0  0  0  0  0  0  0  0
    3.4741    0.8395   -1.4704 H   0  0  0  0  0  0  0  0  0  0  0  0
    2.3344    2.5713   -0.9908 C   0  0  0  0  0  0  0  0  0  0  0  0
    1.9308    3.4508    0.1954 C   0  0  0  0  0  0  0  0  0  0  0  0
    3.1373    3.7273    1.0973 C   0  0  0  0  0  0  0  0  0  0  0  0
    3.7945    2.4179    1.5373 C   0  0  0  0  0  0  0  0  0  0  0  0
    4.1564    1.5736    0.3817 N   0  0  0  0  0  0  0  0  0  0  0  0
    5.4909    1.3579    0.1347 C   0  0  0  0  0  0  0  0  0  0  0  0
    6.3849    1.7910    0.8424 O   0  0  0  0  0  0  0  0  0  0  0  0
    5.8895    0.5130   -1.0941 C   0  0  0  0  0  0  0  0  0  0  0  0
    6.0859    1.3432   -2.2708 N   0  0  0  0  0  0  0  0  0  0  0  0
    7.0891    2.1901   -2.5890 C   0  0  0  0  0  0  0  0  0  0  0  0
    6.7975    2.7694   -3.7333 N   0  0  0  0  0  0  0  0  0  0  0  0
    5.5970    2.2715   -4.1077 N   0  0  0  0  0  0  0  0  0  0  0  0
    5.1582    1.4222   -3.2460 N   0  0  0  0  0  0  0  0  0  0  0  0
    3.5217   -0.4103    1.2303 H   0  0  0  0  0  0  0  0  0  0  0  0
    3.7208   -2.0822    2.7908 H   0  0  0  0  0  0  0  0  0  0  0  0
    2.7238   -4.0299    3.9710 H   0  0  0  0  0  0  0  0  0  0  0  0
    0.4223   -6.0463    2.9971 H   0  0  0  0  0  0  0  0  0  0  0  0
   -0.8178   -5.0444    3.7485 H   0  0  0  0  0  0  0  0  0  0  0  0
    1.0560   -7.4854    4.4990 H   0  0  0  0  0  0  0  0  0  0  0  0
   -0.2012   -7.0952    5.6938 H   0  0  0  0  0  0  0  0  0  0  0  0
    2.8479   -7.0996    6.0587 H   0  0  0  0  0  0  0  0  0  0  0  0
    1.6608   -8.0956    6.9128 H   0  0  0  0  0  0  0  0  0  0  0  0
    2.8020   -7.2330    9.0370 H   0  0  0  0  0  0  0  0  0  0  0  0
    2.7184   -5.4961   10.8106 H   0  0  0  0  0  0  0  0  0  0  0  0
    0.6065   -2.8754    8.1195 H   0  0  0  0  0  0  0  0  0  0  0  0
    0.6837   -3.4994    5.6669 H   0  0  0  0  0  0  0  0  0  0  0  0
   -0.6331   -4.5966    6.1103 H   0  0  0  0  0  0  0  0  0  0  0  0
    0.0832   -1.6434    0.5034 H   0  0  0  0  0  0  0  0  0  0  0  0
    1.4575    2.2760   -1.5828 H   0  0  0  0  0  0  0  0  0  0  0  0
    3.0136    3.1258   -1.6591 H   0  0  0  0  0  0  0  0  0  0  0  0
    1.1394    2.9456    0.7773 H   0  0  0  0  0  0  0  0  0  0  0  0
    1.4939    4.3937   -0.1703 H   0  0  0  0  0  0  0  0  0  0  0  0
    2.8414    4.2958    1.9942 H   0  0  0  0  0  0  0  0  0  0  0  0
    3.8804    4.3421    0.5598 H   0  0  0  0  0  0  0  0  0  0  0  0
    3.0941    1.8492    2.1745 H   0  0  0  0  0  0  0  0  0  0  0  0
    4.7131    2.5934    2.1088 H   0  0  0  0  0  0  0  0  0  0  0  0
    5.1746   -0.2731   -1.3637 H   0  0  0  0  0  0  0  0  0  0  0  0
    6.8472    0.0464   -0.8306 H   0  0  0  0  0  0  0  0  0  0  0  0
    7.9752    2.3479   -1.9770 H   0  0  0  0  0  0  0  0  0  0  0  0
  1  2  2  0
  2  3  1  0
  2 26  1  0
  3  4  1  0
  3 41  1  0
  4  5  2  0
  4 25  1  0
  5  6  1  0
  5 42  1  0
  6  7  2  0
  6 43  1  0
  7  8  1  0
  7 23  1  0
  8  9  1  0
  8 44  1  0
  8 45  1  0
  9 10  1  0
  9 22  1  0
 10 11  1  0
 10 46  1  0
 10 47  1  0
 11 12  1  0
 11 48  1  0
 11 49  1  0
 12 13  2  0
 12 21  1  0
 13 14  1  0
 13 50  1  0
 14 15  2  0
 14 51  1  0
 15 16  1  0
 15 20  1  0
 16 17  1  1
 16 18  1  0
 16 19  1  0
 20 21  2  0
 20 52  1  0
 21 22  1  0
 22 53  1  0
 22 54  1  0
 23 24  1  0
 23 25  2  0
 25 55  1  0
 26 27  1  6
 26 28  1  0
 26 32  1  0
 28 29  1  0
 28 56  1  0
 28 57  1  0
 29 30  1  0
 29 58  1  0
 29 59  1  0
 30 31  1  0
 30 60  1  0
 30 61  1  0
 31 32  1  0
 31 62  1  0
 31 63  1  0
 32 33  1  0
 33 34  2  0
 33 35  1  0
 35 36  1  0
 35 64  1  0
 35 65  1  0
 36 37  1  0
 36 40  1  0
 37 38  2  0
 37 66  1  0
 38 39  1  0
 39 40  2  0
M  END

