
     RDKit          3D

 29 29  0  0  0  0  0  0  0  0999 V2000
    5.3862   -2.0608    2.9160 C   0  0  0  0  0  0  0  0  0  0  0  0
    5.4670   -0.8013    2.2118 N   0  0  0  0  0  0  0  0  0  0  0  0
    4.3804   -0.1944    1.6641 C   0  0  0  0  0  0  0  0  0  0  0  0
    3.2491   -0.6556    1.6672 O   0  0  0  0  0  0  0  0  0  0  0  0
    4.6952    1.1642    1.0054 C   0  0  0  0  0  0  0  0  0  0  0  0
    5.1415    2.1965    1.9258 N   0  0  0  0  0  0  0  0  0  0  0  0
    6.4422    2.2930    2.3448 C   0  0  0  0  0  0  0  0  0  0  0  0
    7.2870    1.4494    1.9713 O   0  0  0  0  0  0  0  0  0  0  0  0
    6.8105    3.3842    3.2164 C   0  0  0  0  0  0  0  0  0  0  0  0
    5.7606    4.7068    3.7687 S   0  0  0  0  0  0  0  0  0  0  0  0
    7.1371    5.3498    4.6680 C   0  0  0  0  0  0  0  0  0  0  0  0
    7.0192    6.4878    5.3911 N   0  0  0  0  0  0  0  0  0  0  0  0
    8.1083    6.9926    6.2052 C   0  0  0  0  0  0  0  0  0  0  0  0
    8.2506    4.6725    4.5633 N   0  0  0  0  0  0  0  0  0  0  0  0
    8.0919    3.5792    3.7538 C   0  0  0  0  0  0  0  0  0  0  0  0
    9.1412    2.7631    3.5284 N   0  0  0  0  0  0  0  0  0  0  0  0
    5.6997   -1.9595    3.9698 H   0  0  0  0  0  0  0  0  0  0  0  0
    6.0194   -2.8313    2.4428 H   0  0  0  0  0  0  0  0  0  0  0  0
    4.3418   -2.3995    2.8894 H   0  0  0  0  0  0  0  0  0  0  0  0
    6.3527   -0.2939    2.1581 H   0  0  0  0  0  0  0  0  0  0  0  0
    3.7721    1.4962    0.5132 H   0  0  0  0  0  0  0  0  0  0  0  0
    5.4779    1.0228    0.2434 H   0  0  0  0  0  0  0  0  0  0  0  0
    4.4366    2.7792    2.3600 H   0  0  0  0  0  0  0  0  0  0  0  0
    6.0955    6.8805    5.5132 H   0  0  0  0  0  0  0  0  0  0  0  0
    9.0366    7.0198    5.6165 H   0  0  0  0  0  0  0  0  0  0  0  0
    8.2940    6.3633    7.0939 H   0  0  0  0  0  0  0  0  0  0  0  0
    7.8645    8.0120    6.5347 H   0  0  0  0  0  0  0  0  0  0  0  0
   10.0466    3.0090    3.9020 H   0  0  0  0  0  0  0  0  0  0  0  0
    8.9959    2.0001    2.8706 H   0  0  0  0  0  0  0  0  0  0  0  0
  1  2  1  0
  1 17  1  0
  1 18  1  0
  1 19  1  0
  2  3  1  0
  2 20  1  0
  3  4  2  0
  3  5  1  0
  5  6  1  0
  5 21  1  0
  5 22  1  0
  6  7  1  0
  6 23  1  0
  7  8  2  0
  7  9  1  0
  9 10  1  0
  9 15  2  0
 10 11  1  0
 11 12  1  0
 11 14  2  0
 12 13  1  0
 12 24  1  0
 13 25  1  0
 13 26  1  0
 13 27  1  0
 14 15  1  0
 15 16  1  0
 16 28  1  0
 16 29  1  0
M  END

