
     RDKit          3D

 74 79  0  0  0  0  0  0  0  0999 V2000
    1.4666   -1.2758   -0.7142 C   0  0  0  0  0  0  0  0  0  0  0  0
    2.8423   -1.1058   -0.3696 O   0  0  0  0  0  0  0  0  0  0  0  0
    3.1716   -1.3279    0.9076 C   0  0  0  0  0  0  0  0  0  0  0  0
    2.3781   -1.6606    1.7636 O   0  0  0  0  0  0  0  0  0  0  0  0
    4.6199   -1.1285    1.1645 C   0  0  0  0  0  0  0  0  0  0  0  0
    5.4459   -0.7215    0.0706 C   0  0  0  0  0  0  0  0  0  0  0  0
    6.1158   -0.3714   -0.8128 N   0  0  0  0  0  0  0  0  0  0  0  0
    5.1287   -1.2712    2.4352 C   0  0  0  0  0  0  0  0  0  0  0  0
    4.1112   -1.6018    3.8156 S   0  0  0  0  0  0  0  0  0  0  0  0
    5.4473   -1.3928    4.9810 C   0  0  0  0  0  0  0  0  0  0  0  0
    5.2165   -1.1959    6.2930 C   0  0  0  0  0  0  0  0  0  0  0  0
    6.5525   -0.9867    7.4584 S   0  0  0  0  0  0  0  0  0  0  0  0
    5.5355   -1.3213    8.8384 C   0  0  0  0  0  0  0  0  0  0  0  0
    6.0446   -1.4662   10.1086 C   0  0  0  0  0  0  0  0  0  0  0  0
    5.2192   -1.8768   11.2017 C   0  0  0  0  0  0  0  0  0  0  0  0
    4.5499   -2.2299   12.0843 N   0  0  0  0  0  0  0  0  0  0  0  0
    7.4928   -1.2659   10.3659 C   0  0  0  0  0  0  0  0  0  0  0  0
    8.2858   -0.9306    9.5106 O   0  0  0  0  0  0  0  0  0  0  0  0
    7.8224   -1.4906   11.6426 O   0  0  0  0  0  0  0  0  0  0  0  0
    9.1980   -1.3198   11.9874 C   0  0  0  0  0  0  0  0  0  0  0  0
    4.0648   -1.5059    8.4667 C   0  0  1  0  0  0  0  0  0  0  0  0
    3.0561   -0.6775    9.2838 C   0  0  0  0  0  0  0  0  0  0  0  0
    3.1294    0.7791    8.8076 C   0  0  2  0  0  0  0  0  0  0  0  0
    1.9738    1.6492    9.2549 C   0  0  0  0  0  0  0  0  0  0  0  0
    2.1892    2.6738   10.1852 C   0  0  0  0  0  0  0  0  0  0  0  0
    1.1294    3.4582   10.6517 C   0  0  0  0  0  0  0  0  0  0  0  0
   -0.1802    3.2481   10.2013 C   0  0  0  0  0  0  0  0  0  0  0  0
   -1.3307    4.0931   10.6911 C   0  0  0  0  0  0  0  0  0  0  0  0
   -0.3912    2.2227    9.2619 C   0  0  0  0  0  0  0  0  0  0  0  0
    0.6622    1.4398    8.7951 C   0  0  0  0  0  0  0  0  0  0  0  0
    3.2497    0.6513    6.9568 S   0  0  0  0  0  0  0  0  0  0  0  0
    3.8881   -1.1077    6.9800 C   0  0  1  0  0  0  0  0  0  0  0  0
    6.7760   -1.4811    4.2945 C   0  0  1  0  0  0  0  0  0  0  0  0
    7.4176   -3.2390    4.3235 S   0  0  0  0  0  0  0  0  0  0  0  0
    7.5340   -3.3739    2.4729 C   0  0  2  0  0  0  0  0  0  0  0  0
    8.6881   -4.2466    2.0274 C   0  0  0  0  0  0  0  0  0  0  0  0
    8.4695   -5.2799    1.1075 C   0  0  0  0  0  0  0  0  0  0  0  0
    9.5278   -6.0680    0.6439 C   0  0  0  0  0  0  0  0  0  0  0  0
   10.8393   -5.8529    1.0866 C   0  0  0  0  0  0  0  0  0  0  0  0
   11.9894   -6.6968    0.5944 C   0  0  0  0  0  0  0  0  0  0  0  0
   11.0534   -4.8192    2.0163 C   0  0  0  0  0  0  0  0  0  0  0  0
   10.0015   -4.0326    2.4802 C   0  0  0  0  0  0  0  0  0  0  0  0
    7.6071   -1.9192    1.9912 C   0  0  0  0  0  0  0  0  0  0  0  0
    6.5997   -1.0873    2.8063 C   0  0  1  0  0  0  0  0  0  0  0  0
    1.3942   -1.0556   -1.7858 H   0  0  0  0  0  0  0  0  0  0  0  0
    0.8329   -0.5859   -0.1368 H   0  0  0  0  0  0  0  0  0  0  0  0
    1.1390   -2.3065   -0.5108 H   0  0  0  0  0  0  0  0  0  0  0  0
    9.2700   -1.5387   13.0594 H   0  0  0  0  0  0  0  0  0  0  0  0
    9.5255   -0.2895   11.7827 H   0  0  0  0  0  0  0  0  0  0  0  0
    9.8320   -2.0105   11.4113 H   0  0  0  0  0  0  0  0  0  0  0  0
    3.8441   -2.5813    8.5908 H   0  0  0  0  0  0  0  0  0  0  0  0
    3.2168   -0.7495   10.3671 H   0  0  0  0  0  0  0  0  0  0  0  0
    2.0493   -1.0763    9.0833 H   0  0  0  0  0  0  0  0  0  0  0  0
    4.0647    1.2337    9.1689 H   0  0  0  0  0  0  0  0  0  0  0  0
    3.2011    2.8625   10.5555 H   0  0  0  0  0  0  0  0  0  0  0  0
    1.3287    4.2500   11.3794 H   0  0  0  0  0  0  0  0  0  0  0  0
   -1.0075    4.8129   11.4574 H   0  0  0  0  0  0  0  0  0  0  0  0
   -2.1281    3.4695   11.1283 H   0  0  0  0  0  0  0  0  0  0  0  0
   -1.7875    4.6643    9.8652 H   0  0  0  0  0  0  0  0  0  0  0  0
   -1.4021    2.0389    8.8856 H   0  0  0  0  0  0  0  0  0  0  0  0
    0.4718    0.6659    8.0471 H   0  0  0  0  0  0  0  0  0  0  0  0
    3.1392   -1.7417    6.4850 H   0  0  0  0  0  0  0  0  0  0  0  0
    7.5238   -0.8446    4.7879 H   0  0  0  0  0  0  0  0  0  0  0  0
    6.5977   -3.8293    2.1151 H   0  0  0  0  0  0  0  0  0  0  0  0
    7.4561   -5.4730    0.7436 H   0  0  0  0  0  0  0  0  0  0  0  0
    9.3259   -6.8671   -0.0750 H   0  0  0  0  0  0  0  0  0  0  0  0
   11.6518   -7.4704   -0.1109 H   0  0  0  0  0  0  0  0  0  0  0  0
   12.5018   -7.2025    1.4299 H   0  0  0  0  0  0  0  0  0  0  0  0
   12.7464   -6.0805    0.0806 H   0  0  0  0  0  0  0  0  0  0  0  0
   12.0656   -4.6321    2.3875 H   0  0  0  0  0  0  0  0  0  0  0  0
   10.1945   -3.2526    3.2211 H   0  0  0  0  0  0  0  0  0  0  0  0
    7.4450   -1.8512    0.9079 H   0  0  0  0  0  0  0  0  0  0  0  0
    8.6143   -1.5199    2.1889 H   0  0  0  0  0  0  0  0  0  0  0  0
    6.8214   -0.0126    2.6790 H   0  0  0  0  0  0  0  0  0  0  0  0
  1  2  1  0
  1 45  1  0
  1 46  1  0
  1 47  1  0
  2  3  1  0
  3  4  2  0
  3  5  1  0
  5  6  1  0
  5  8  2  0
  6  7  3  0
  8  9  1  0
  8 44  1  0
  9 10  1  0
 10 11  2  0
 10 33  1  0
 11 12  1  0
 11 32  1  0
 12 13  2  0
 13 14  1  0
 13 21  1  0
 14 15  1  0
 14 17  2  0
 15 16  3  0
 17 18  1  0
 17 19  1  0
 19 20  1  0
 20 48  1  0
 20 49  1  0
 20 50  1  0
 21 22  1  0
 21 32  1  0
 21 51  1  6
 22 23  1  0
 22 52  1  0
 22 53  1  0
 23 24  1  0
 23 31  1  0
 23 54  1  1
 24 25  2  0
 24 30  1  0
 25 26  1  0
 25 55  1  0
 26 27  2  0
 26 56  1  0
 27 28  1  0
 27 29  1  0
 28 57  1  0
 28 58  1  0
 28 59  1  0
 29 30  2  0
 29 60  1  0
 30 61  1  0
 31 32  1  0
 32 62  1  6
 33 34  1  0
 33 44  1  0
 33 63  1  1
 34 35  1  0
 35 36  1  0
 35 43  1  0
 35 64  1  6
 36 37  2  0
 36 42  1  0
 37 38  1  0
 37 65  1  0
 38 39  2  0
 38 66  1  0
 39 40  1  0
 39 41  1  0
 40 67  1  0
 40 68  1  0
 40 69  1  0
 41 42  2  0
 41 70  1  0
 42 71  1  0
 43 44  1  0
 43 72  1  0
 43 73  1  0
 44 74  1  1
M  CHG  2  12   1  18  -1
M  END

