
     RDKit          3D

 55 58  0  0  0  0  0  0  0  0999 V2000
    1.5778    1.7941   -1.8034 C   0  0  0  0  0  0  0  0  0  0  0  0
    2.8220    1.6128   -1.3207 C   0  0  0  0  0  0  0  0  0  0  0  0
    4.0291    1.6991   -2.1244 C   0  0  0  0  0  0  0  0  0  0  0  0
    5.3132    1.5369   -1.6996 C   0  0  0  0  0  0  0  0  0  0  0  0
    5.7510    1.2473   -0.3493 C   0  0  0  0  0  0  0  0  0  0  0  0
    7.0305    1.1011    0.0891 C   0  0  0  0  0  0  0  0  0  0  0  0
    8.2387    1.2022   -0.8052 C   0  0  0  0  0  0  0  0  0  0  0  0
    7.2811    0.8350    1.5484 C   0  0  1  0  0  0  0  0  0  0  0  0
    8.3386   -0.2019    2.0316 C   0  0  0  0  0  0  0  0  0  0  0  0
    8.6999    0.7478    3.1991 C   0  0  0  0  0  0  0  0  0  0  0  0
    8.0416    1.9091    2.4275 C   0  0  2  0  0  0  0  0  0  0  0  0
    7.1817    2.9182    3.1383 C   0  0  0  0  0  0  0  0  0  0  0  0
    6.7998    3.9820    2.3290 N   0  0  0  0  0  0  0  0  0  0  0  0
    5.9933    4.8170    2.9291 C   0  0  0  0  0  0  0  0  0  0  0  0
    5.5597    4.7464    4.3048 C   0  0  0  0  0  0  0  0  0  0  0  0
    6.0151    3.5793    5.0740 C   0  0  0  0  0  0  0  0  0  0  0  0
    5.6825    3.3378    6.3652 C   0  0  0  0  0  0  0  0  0  0  0  0
    6.8435    2.6943    4.3738 N   0  0  0  0  0  0  0  0  0  0  0  0
    4.8418    5.8892    4.5281 C   0  0  0  0  0  0  0  0  0  0  0  0
    4.8613    6.6885    3.4003 N   0  0  0  0  0  0  0  0  0  0  0  0
    5.4653    5.9588    2.3738 N   0  0  0  0  0  0  0  0  0  0  0  0
    6.0078    6.6037    1.1581 C   0  0  1  0  0  0  0  0  0  0  0  0
    5.6867    5.7448   -0.0802 C   0  0  0  0  0  0  0  0  0  0  0  0
    4.2196    5.8662   -0.4783 C   0  0  0  0  0  0  0  0  0  0  0  0
    3.8477    7.2192   -0.7022 O   0  0  0  0  0  0  0  0  0  0  0  0
    4.0085    8.0231    0.4385 C   0  0  0  0  0  0  0  0  0  0  0  0
    5.4557    8.0221    0.9502 C   0  0  0  0  0  0  0  0  0  0  0  0
    0.6975    1.7174   -1.1606 H   0  0  0  0  0  0  0  0  0  0  0  0
    1.4040    2.0228   -2.8601 H   0  0  0  0  0  0  0  0  0  0  0  0
    2.9373    1.3839   -0.2559 H   0  0  0  0  0  0  0  0  0  0  0  0
    3.8729    1.9172   -3.1872 H   0  0  0  0  0  0  0  0  0  0  0  0
    6.0912    1.6364   -2.4620 H   0  0  0  0  0  0  0  0  0  0  0  0
    4.9658    1.1410    0.4057 H   0  0  0  0  0  0  0  0  0  0  0  0
    8.0068    1.6009   -1.8010 H   0  0  0  0  0  0  0  0  0  0  0  0
    8.7089    0.2131   -0.9453 H   0  0  0  0  0  0  0  0  0  0  0  0
    9.0086    1.8523   -0.3575 H   0  0  0  0  0  0  0  0  0  0  0  0
    6.3221    0.6233    2.0462 H   0  0  0  0  0  0  0  0  0  0  0  0
    9.1700   -0.3065    1.3178 H   0  0  0  0  0  0  0  0  0  0  0  0
    7.9639   -1.2077    2.2774 H   0  0  0  0  0  0  0  0  0  0  0  0
    9.7644    0.8584    3.4561 H   0  0  0  0  0  0  0  0  0  0  0  0
    8.1324    0.5331    4.1148 H   0  0  0  0  0  0  0  0  0  0  0  0
    8.7639    2.4534    1.7992 H   0  0  0  0  0  0  0  0  0  0  0  0
    5.0391    4.0165    6.9283 H   0  0  0  0  0  0  0  0  0  0  0  0
    6.0643    2.4441    6.8607 H   0  0  0  0  0  0  0  0  0  0  0  0
    4.3062    6.2354    5.4111 H   0  0  0  0  0  0  0  0  0  0  0  0
    4.0087    7.1767    3.1271 H   0  0  0  0  0  0  0  0  0  0  0  0
    7.1031    6.6487    1.2886 H   0  0  0  0  0  0  0  0  0  0  0  0
    5.9646    4.6990    0.1125 H   0  0  0  0  0  0  0  0  0  0  0  0
    6.3155    6.1086   -0.9100 H   0  0  0  0  0  0  0  0  0  0  0  0
    3.5708    5.4209    0.3045 H   0  0  0  0  0  0  0  0  0  0  0  0
    4.0211    5.3251   -1.4144 H   0  0  0  0  0  0  0  0  0  0  0  0
    3.3049    7.6910    1.2377 H   0  0  0  0  0  0  0  0  0  0  0  0
    3.7050    9.0439    0.1587 H   0  0  0  0  0  0  0  0  0  0  0  0
    5.5520    8.6312    1.8630 H   0  0  0  0  0  0  0  0  0  0  0  0
    6.0885    8.4969    0.1836 H   0  0  0  0  0  0  0  0  0  0  0  0
  1  2  2  0
  1 28  1  0
  1 29  1  0
  2  3  1  0
  2 30  1  0
  3  4  2  0
  3 31  1  0
  4  5  1  0
  4 32  1  0
  5  6  2  0
  5 33  1  0
  6  7  1  0
  6  8  1  0
  7 34  1  0
  7 35  1  0
  7 36  1  0
  8  9  1  0
  8 11  1  0
  8 37  1  1
  9 10  1  0
  9 38  1  0
  9 39  1  0
 10 11  1  0
 10 40  1  0
 10 41  1  0
 11 12  1  0
 11 42  1  6
 12 13  1  0
 12 18  2  0
 13 14  2  0
 14 15  1  0
 14 21  1  0
 15 16  1  0
 15 19  2  0
 16 17  2  0
 16 18  1  0
 17 43  1  0
 17 44  1  0
 19 20  1  0
 19 45  1  0
 20 21  1  0
 20 46  1  0
 21 22  1  0
 22 23  1  0
 22 27  1  0
 22 47  1  1
 23 24  1  0
 23 48  1  0
 23 49  1  0
 24 25  1  0
 24 50  1  0
 24 51  1  0
 25 26  1  0
 26 27  1  0
 26 52  1  0
 26 53  1  0
 27 54  1  0
 27 55  1  0
M  END

