
     RDKit          3D

 48 49  0  0  0  0  0  0  0  0999 V2000
    0.9306    0.4856    1.9558 C   0  0  0  0  0  0  0  0  0  0  0  0
    2.3668    0.9937    1.8709 C   0  0  0  0  0  0  0  0  0  0  0  0
    2.9048    1.0450    0.5079 N   0  0  0  0  0  0  0  0  0  0  0  0
    2.1143    1.8149   -0.4482 C   0  0  0  0  0  0  0  0  0  0  0  0
    1.9816    3.3019   -0.0825 C   0  0  0  0  0  0  0  0  0  0  0  0
    1.0768    3.7487    0.5708 O   0  0  0  0  0  0  0  0  0  0  0  0
    3.0071    4.1022   -0.4651 O   0  0  0  0  0  0  0  0  0  0  0  0
    4.3237    1.3508    0.4889 C   0  0  1  0  0  0  0  0  0  0  0  0
    5.2908    0.2822    1.0612 C   0  0  0  0  0  0  0  0  0  0  0  0
    6.2596    0.5657   -0.1147 C   0  0  2  0  0  0  0  0  0  0  0  0
    7.3056    1.4960    0.2695 N   0  0  0  0  0  0  0  0  0  0  0  0
    8.1472    2.0264   -0.6918 C   0  0  0  0  0  0  0  0  0  0  0  0
    7.9324    1.8471   -1.8871 O   0  0  0  0  0  0  0  0  0  0  0  0
    9.2051    2.7816   -0.2383 N   0  0  0  0  0  0  0  0  0  0  0  0
    9.6087    2.9752    1.1629 C   0  0  1  0  0  0  0  0  0  0  0  0
   10.2410    1.7229    1.7924 C   0  0  0  0  0  0  0  0  0  0  0  0
   10.6032    4.1480    1.0600 C   0  0  0  0  0  0  0  0  0  0  0  0
   11.2406    3.9572   -0.3239 C   0  0  0  0  0  0  0  0  0  0  0  0
   10.0693    3.4879   -1.2073 C   0  0  2  0  0  0  0  0  0  0  0  0
    9.3445    4.6363   -1.9179 C   0  0  0  0  0  0  0  0  0  0  0  0
    5.0722    1.2294   -0.8632 C   0  0  0  0  0  0  0  0  0  0  0  0
    0.6617    0.3057    3.0083 H   0  0  0  0  0  0  0  0  0  0  0  0
    0.8149   -0.4616    1.4047 H   0  0  0  0  0  0  0  0  0  0  0  0
    0.2156    1.2207    1.5579 H   0  0  0  0  0  0  0  0  0  0  0  0
    3.0224    0.3147    2.4405 H   0  0  0  0  0  0  0  0  0  0  0  0
    2.4332    1.9832    2.3752 H   0  0  0  0  0  0  0  0  0  0  0  0
    1.0967    1.4061   -0.4993 H   0  0  0  0  0  0  0  0  0  0  0  0
    2.5638    1.7037   -1.4488 H   0  0  0  0  0  0  0  0  0  0  0  0
    3.6464    3.6051   -0.9960 H   0  0  0  0  0  0  0  0  0  0  0  0
    4.5477    2.3337    0.9577 H   0  0  0  0  0  0  0  0  0  0  0  0
    4.8500   -0.7216    0.9756 H   0  0  0  0  0  0  0  0  0  0  0  0
    5.6771    0.4214    2.0840 H   0  0  0  0  0  0  0  0  0  0  0  0
    6.6861   -0.3141   -0.6239 H   0  0  0  0  0  0  0  0  0  0  0  0
    7.5597    1.5335    1.2471 H   0  0  0  0  0  0  0  0  0  0  0  0
    8.7320    3.2755    1.7659 H   0  0  0  0  0  0  0  0  0  0  0  0
   11.1725    1.4484    1.2731 H   0  0  0  0  0  0  0  0  0  0  0  0
    9.5693    0.8525    1.7388 H   0  0  0  0  0  0  0  0  0  0  0  0
   10.4781    1.9031    2.8533 H   0  0  0  0  0  0  0  0  0  0  0  0
   11.3336    4.1478    1.8830 H   0  0  0  0  0  0  0  0  0  0  0  0
   10.0593    5.1050    1.1017 H   0  0  0  0  0  0  0  0  0  0  0  0
   12.0223    3.1816   -0.2812 H   0  0  0  0  0  0  0  0  0  0  0  0
   11.7106    4.8736   -0.7102 H   0  0  0  0  0  0  0  0  0  0  0  0
   10.4038    2.7696   -1.9724 H   0  0  0  0  0  0  0  0  0  0  0  0
    9.0125    5.4082   -1.2040 H   0  0  0  0  0  0  0  0  0  0  0  0
    8.4675    4.2511   -2.4555 H   0  0  0  0  0  0  0  0  0  0  0  0
   10.0157    5.1123   -2.6510 H   0  0  0  0  0  0  0  0  0  0  0  0
    4.5780    0.4995   -1.5217 H   0  0  0  0  0  0  0  0  0  0  0  0
    5.3165    2.1339   -1.4391 H   0  0  0  0  0  0  0  0  0  0  0  0
  1  2  1  0
  1 22  1  0
  1 23  1  0
  1 24  1  0
  2  3  1  0
  2 25  1  0
  2 26  1  0
  3  4  1  0
  3  8  1  0
  4  5  1  0
  4 27  1  0
  4 28  1  0
  5  6  2  0
  5  7  1  0
  7 29  1  0
  8  9  1  0
  8 21  1  0
  8 30  1  1
  9 10  1  0
  9 31  1  0
  9 32  1  0
 10 11  1  0
 10 21  1  0
 10 33  1  6
 11 12  1  0
 11 34  1  0
 12 13  2  0
 12 14  1  0
 14 15  1  0
 14 19  1  0
 15 16  1  0
 15 17  1  0
 15 35  1  1
 16 36  1  0
 16 37  1  0
 16 38  1  0
 17 18  1  0
 17 39  1  0
 17 40  1  0
 18 19  1  0
 18 41  1  0
 18 42  1  0
 19 20  1  0
 19 43  1  6
 20 44  1  0
 20 45  1  0
 20 46  1  0
 21 47  1  0
 21 48  1  0
M  END

