
     RDKit          3D

 79 81  0  0  0  0  0  0  0  0999 V2000
    2.4297   -2.1386   -6.2385 C   0  0  0  0  0  0  0  0  0  0  0  0
    2.8642   -2.6612   -5.0817 C   0  0  0  0  0  0  0  0  0  0  0  0
    2.6370   -4.0886   -4.6616 C   0  0  0  0  0  0  0  0  0  0  0  0
    3.6231   -1.7466   -4.1625 C   0  0  0  0  0  0  0  0  0  0  0  0
    3.8695   -0.5827   -4.3812 O   0  0  0  0  0  0  0  0  0  0  0  0
    4.0031   -2.3864   -3.0354 O   0  0  0  0  0  0  0  0  0  0  0  0
    4.7406   -1.6318   -2.0612 C   0  0  0  0  0  0  0  0  0  0  0  0
    6.2374   -1.6414   -2.3501 C   0  0  0  0  0  0  0  0  0  0  0  0
    7.0427   -0.9010   -1.2670 C   0  0  0  0  0  0  0  0  0  0  0  0
    8.5335   -0.8999   -1.5243 C   0  0  0  0  0  0  0  0  0  0  0  0
    9.1346    0.0823   -2.3273 C   0  0  0  0  0  0  0  0  0  0  0  0
   10.5006    0.0650   -2.6063 C   0  0  0  0  0  0  0  0  0  0  0  0
   11.3308   -0.9402   -2.0734 C   0  0  0  0  0  0  0  0  0  0  0  0
   12.7186   -0.9589   -2.3437 N   0  0  0  0  0  0  0  0  0  0  0  0
   13.4499    0.2568   -2.4506 C   0  0  0  0  0  0  0  0  0  0  0  0
   13.2936    1.2832   -1.5083 C   0  0  0  0  0  0  0  0  0  0  0  0
   14.0063    2.4820   -1.6140 C   0  0  0  0  0  0  0  0  0  0  0  0
   14.9184    2.6676   -2.6641 C   0  0  0  0  0  0  0  0  0  0  0  0
   15.6659    3.7864   -2.8526 O   0  0  0  0  0  0  0  0  0  0  0  0
   15.5564    4.8677   -1.9444 C   0  0  0  0  0  0  0  0  0  0  0  0
   16.4983    5.9715   -2.4004 C   0  0  0  0  0  0  0  0  0  0  0  0
   16.4665    7.2019   -1.4896 C   0  0  0  0  0  0  0  0  0  0  0  0
   17.4124    8.3137   -1.9460 C   0  0  0  0  0  0  0  0  0  0  0  0
   15.0905    1.6367   -3.6047 C   0  0  0  0  0  0  0  0  0  0  0  0
   14.3622    0.4572   -3.5052 C   0  0  0  0  0  0  0  0  0  0  0  0
   13.4041   -2.1942   -2.5104 C   0  0  0  0  0  0  0  0  0  0  0  0
   12.8776   -3.2130   -3.3172 C   0  0  0  0  0  0  0  0  0  0  0  0
   13.5460   -4.4309   -3.4795 C   0  0  0  0  0  0  0  0  0  0  0  0
   14.7812   -4.6445   -2.8488 C   0  0  0  0  0  0  0  0  0  0  0  0
   15.5155   -5.7837   -2.9499 O   0  0  0  0  0  0  0  0  0  0  0  0
   15.0453   -6.8575   -3.7480 C   0  0  0  0  0  0  0  0  0  0  0  0
   16.0527   -7.9951   -3.6722 C   0  0  0  0  0  0  0  0  0  0  0  0
   16.2199   -8.5932   -2.2720 C   0  0  0  0  0  0  0  0  0  0  0  0
   17.2539   -9.7179   -2.2160 C   0  0  0  0  0  0  0  0  0  0  0  0
   15.3219   -3.6219   -2.0495 C   0  0  0  0  0  0  0  0  0  0  0  0
   14.6409   -2.4227   -1.8757 C   0  0  0  0  0  0  0  0  0  0  0  0
   10.7367   -1.9238   -1.2590 C   0  0  0  0  0  0  0  0  0  0  0  0
    9.3662   -1.9019   -1.0020 C   0  0  0  0  0  0  0  0  0  0  0  0
    1.8695   -2.7396   -6.9597 H   0  0  0  0  0  0  0  0  0  0  0  0
    2.6314   -1.0923   -6.4791 H   0  0  0  0  0  0  0  0  0  0  0  0
    2.0735   -4.6390   -5.4289 H   0  0  0  0  0  0  0  0  0  0  0  0
    2.0805   -4.1386   -3.7119 H   0  0  0  0  0  0  0  0  0  0  0  0
    3.5930   -4.6075   -4.4862 H   0  0  0  0  0  0  0  0  0  0  0  0
    4.5219   -2.1184   -1.0985 H   0  0  0  0  0  0  0  0  0  0  0  0
    4.3557   -0.6009   -2.0386 H   0  0  0  0  0  0  0  0  0  0  0  0
    6.4170   -1.1698   -3.3296 H   0  0  0  0  0  0  0  0  0  0  0  0
    6.5855   -2.6855   -2.4259 H   0  0  0  0  0  0  0  0  0  0  0  0
    6.8409   -1.3639   -0.2850 H   0  0  0  0  0  0  0  0  0  0  0  0
    6.6799    0.1394   -1.1991 H   0  0  0  0  0  0  0  0  0  0  0  0
    8.5181    0.8787   -2.7556 H   0  0  0  0  0  0  0  0  0  0  0  0
   10.9340    0.8389   -3.2422 H   0  0  0  0  0  0  0  0  0  0  0  0
   12.5975    1.1467   -0.6782 H   0  0  0  0  0  0  0  0  0  0  0  0
   13.8500    3.2557   -0.8620 H   0  0  0  0  0  0  0  0  0  0  0  0
   15.8159    4.5348   -0.9204 H   0  0  0  0  0  0  0  0  0  0  0  0
   14.5126    5.2370   -1.9137 H   0  0  0  0  0  0  0  0  0  0  0  0
   16.2303    6.2557   -3.4329 H   0  0  0  0  0  0  0  0  0  0  0  0
   17.5217    5.5605   -2.4487 H   0  0  0  0  0  0  0  0  0  0  0  0
   16.7240    6.9013   -0.4575 H   0  0  0  0  0  0  0  0  0  0  0  0
   15.4347    7.5950   -1.4396 H   0  0  0  0  0  0  0  0  0  0  0  0
   18.4581    7.9645   -1.9704 H   0  0  0  0  0  0  0  0  0  0  0  0
   17.3671    9.1837   -1.2720 H   0  0  0  0  0  0  0  0  0  0  0  0
   17.1585    8.6637   -2.9603 H   0  0  0  0  0  0  0  0  0  0  0  0
   15.7992    1.7931   -4.4207 H   0  0  0  0  0  0  0  0  0  0  0  0
   14.4988   -0.3282   -4.2513 H   0  0  0  0  0  0  0  0  0  0  0  0
   11.9242   -3.0548   -3.8254 H   0  0  0  0  0  0  0  0  0  0  0  0
   13.0982   -5.1969   -4.1127 H   0  0  0  0  0  0  0  0  0  0  0  0
   14.9191   -6.5228   -4.7951 H   0  0  0  0  0  0  0  0  0  0  0  0
   14.0541   -7.1934   -3.3849 H   0  0  0  0  0  0  0  0  0  0  0  0
   17.0260   -7.6249   -4.0403 H   0  0  0  0  0  0  0  0  0  0  0  0
   15.7288   -8.7783   -4.3810 H   0  0  0  0  0  0  0  0  0  0  0  0
   15.2414   -8.9701   -1.9213 H   0  0  0  0  0  0  0  0  0  0  0  0
   16.5029   -7.7875   -1.5748 H   0  0  0  0  0  0  0  0  0  0  0  0
   16.9807  -10.5521   -2.8843 H   0  0  0  0  0  0  0  0  0  0  0  0
   17.3502  -10.1265   -1.1975 H   0  0  0  0  0  0  0  0  0  0  0  0
   18.2505   -9.3613   -2.5261 H   0  0  0  0  0  0  0  0  0  0  0  0
   16.2820   -3.7987   -1.5601 H   0  0  0  0  0  0  0  0  0  0  0  0
   15.0695   -1.6436   -1.2422 H   0  0  0  0  0  0  0  0  0  0  0  0
   11.3586   -2.7072   -0.8224 H   0  0  0  0  0  0  0  0  0  0  0  0
    8.9367   -2.6778   -0.3605 H   0  0  0  0  0  0  0  0  0  0  0  0
  1  2  2  0
  1 39  1  0
  1 40  1  0
  2  3  1  0
  2  4  1  0
  3 41  1  0
  3 42  1  0
  3 43  1  0
  4  5  2  0
  4  6  1  0
  6  7  1  0
  7  8  1  0
  7 44  1  0
  7 45  1  0
  8  9  1  0
  8 46  1  0
  8 47  1  0
  9 10  1  0
  9 48  1  0
  9 49  1  0
 10 11  2  0
 10 38  1  0
 11 12  1  0
 11 50  1  0
 12 13  2  0
 12 51  1  0
 13 14  1  0
 13 37  1  0
 14 15  1  0
 14 26  1  0
 15 16  2  0
 15 25  1  0
 16 17  1  0
 16 52  1  0
 17 18  2  0
 17 53  1  0
 18 19  1  0
 18 24  1  0
 19 20  1  0
 20 21  1  0
 20 54  1  0
 20 55  1  0
 21 22  1  0
 21 56  1  0
 21 57  1  0
 22 23  1  0
 22 58  1  0
 22 59  1  0
 23 60  1  0
 23 61  1  0
 23 62  1  0
 24 25  2  0
 24 63  1  0
 25 64  1  0
 26 27  2  0
 26 36  1  0
 27 28  1  0
 27 65  1  0
 28 29  2  0
 28 66  1  0
 29 30  1  0
 29 35  1  0
 30 31  1  0
 31 32  1  0
 31 67  1  0
 31 68  1  0
 32 33  1  0
 32 69  1  0
 32 70  1  0
 33 34  1  0
 33 71  1  0
 33 72  1  0
 34 73  1  0
 34 74  1  0
 34 75  1  0
 35 36  2  0
 35 76  1  0
 36 77  1  0
 37 38  2  0
 37 78  1  0
 38 79  1  0
M  END

