
     RDKit          3D

 29 28  0  0  0  0  0  0  0  0999 V2000
    4.1353   -1.1227    5.2361 C   0  0  0  0  0  0  0  0  0  0  0  0
    5.6322   -1.0730    5.5182 C   0  0  1  0  0  0  0  0  0  0  0  0
    6.0065   -0.0415    5.3687 H   0  0  0  0  0  0  0  0  0  0  0  0
    5.9167   -1.4883    6.8575 O   0  0  0  0  0  0  0  0  0  0  0  0
    6.4762   -2.0297    4.6588 C   0  0  2  0  0  0  0  0  0  0  0  0
    6.0408   -3.0430    4.7695 H   0  0  0  0  0  0  0  0  0  0  0  0
    7.8061   -2.0318    5.1520 O   0  0  0  0  0  0  0  0  0  0  0  0
    6.4826   -1.7373    3.1592 C   0  0  2  0  0  0  0  0  0  0  0  0
    5.4203   -1.7109    2.8409 H   0  0  0  0  0  0  0  0  0  0  0  0
    7.1375   -2.8075    2.5168 O   0  0  0  0  0  0  0  0  0  0  0  0
    7.0489   -0.3820    2.6960 C   0  0  2  0  0  0  0  0  0  0  0  0
    6.3813    0.4109    3.0921 H   0  0  0  0  0  0  0  0  0  0  0  0
    6.9596   -0.4284    1.2832 O   0  0  0  0  0  0  0  0  0  0  0  0
    8.4748    0.0952    3.0814 C   0  0  2  0  0  0  0  0  0  0  0  0
    8.5427    0.1916    4.1789 H   0  0  0  0  0  0  0  0  0  0  0  0
    8.6241    1.3452    2.4432 O   0  0  0  0  0  0  0  0  0  0  0  0
    9.6669   -0.7746    2.5975 C   0  0  0  0  0  0  0  0  0  0  0  0
    9.8953   -1.9394    3.2184 N   0  0  0  0  0  0  0  0  0  0  0  0
   10.3845   -0.3115    1.7120 O   0  0  0  0  0  0  0  0  0  0  0  0
    3.5914   -0.4908    5.9571 H   0  0  0  0  0  0  0  0  0  0  0  0
    3.7559   -2.1520    5.3331 H   0  0  0  0  0  0  0  0  0  0  0  0
    3.8950   -0.7513    4.2284 H   0  0  0  0  0  0  0  0  0  0  0  0
    5.6047   -0.8119    7.4714 H   0  0  0  0  0  0  0  0  0  0  0  0
    7.7259   -2.0362    6.1202 H   0  0  0  0  0  0  0  0  0  0  0  0
    7.2645   -2.5180    1.5989 H   0  0  0  0  0  0  0  0  0  0  0  0
    7.4492    0.3530    0.9748 H   0  0  0  0  0  0  0  0  0  0  0  0
    9.4574    1.2386    1.9306 H   0  0  0  0  0  0  0  0  0  0  0  0
    9.2177   -2.3097    3.8847 H   0  0  0  0  0  0  0  0  0  0  0  0
   10.6398   -2.5271    2.8618 H   0  0  0  0  0  0  0  0  0  0  0  0
  1  2  1  0
  1 20  1  0
  1 21  1  0
  1 22  1  0
  2  3  1  1
  2  4  1  0
  2  5  1  0
  4 23  1  0
  5  6  1  6
  5  7  1  0
  5  8  1  0
  7 24  1  0
  8  9  1  6
  8 10  1  0
  8 11  1  0
 10 25  1  0
 11 12  1  1
 11 13  1  0
 11 14  1  0
 13 26  1  0
 14 15  1  1
 14 16  1  0
 14 17  1  0
 16 27  1  0
 17 18  1  0
 17 19  2  0
 18 28  1  0
 18 29  1  0
M  END

