
     RDKit          3D

 47 49  0  0  0  0  0  0  0  0999 V2000
    7.5599   -1.3152   -4.1779 C   0  0  0  0  0  0  0  0  0  0  0  0
    6.9562   -0.1699   -3.4314 C   0  0  0  0  0  0  0  0  0  0  0  0
    6.5227   -0.0405   -2.1254 C   0  0  0  0  0  0  0  0  0  0  0  0
    6.0521    1.2972   -2.0138 C   0  0  0  0  0  0  0  0  0  0  0  0
    5.4751    1.8103   -0.7254 C   0  0  0  0  0  0  0  0  0  0  0  0
    5.3135    0.9919    0.1694 O   0  0  0  0  0  0  0  0  0  0  0  0
    5.1245    3.1407   -0.5532 N   0  0  0  0  0  0  0  0  0  0  0  0
    5.2773    4.1960   -1.5654 C   0  0  0  0  0  0  0  0  0  0  0  0
    6.1327    5.2354   -0.8344 C   0  0  0  0  0  0  0  0  0  0  0  0
    7.3325    5.0562   -0.7149 O   0  0  0  0  0  0  0  0  0  0  0  0
    5.4491    6.1163   -0.0013 N   0  0  0  0  0  0  0  0  0  0  0  0
    4.2106    6.7699   -0.3956 C   0  0  0  0  0  0  0  0  0  0  0  0
    4.2594    8.2970   -0.1730 C   0  0  0  0  0  0  0  0  0  0  0  0
    2.9800    8.9819   -0.5991 C   0  0  0  0  0  0  0  0  0  0  0  0
    1.9080    9.1310    0.2960 C   0  0  0  0  0  0  0  0  0  0  0  0
    0.7092    9.7246   -0.1090 C   0  0  0  0  0  0  0  0  0  0  0  0
    0.5609   10.1811   -1.4220 C   0  0  0  0  0  0  0  0  0  0  0  0
    1.6197   10.0407   -2.3242 C   0  0  0  0  0  0  0  0  0  0  0  0
    2.8162    9.4458   -1.9147 C   0  0  0  0  0  0  0  0  0  0  0  0
    5.6700    5.8185    1.4233 C   0  0  0  0  0  0  0  0  0  0  0  0
    5.5806    4.2893    1.7182 C   0  0  2  0  0  0  0  0  0  0  0  0
    6.8432    3.6752    1.7899 O   0  0  0  0  0  0  0  0  0  0  0  0
    4.6005    3.5176    0.7685 C   0  0  0  0  0  0  0  0  0  0  0  0
    6.1818    1.9418   -3.1769 N   0  0  0  0  0  0  0  0  0  0  0  0
    6.7242    1.0486   -4.0075 N   0  0  0  0  0  0  0  0  0  0  0  0
    6.9205    1.3213   -4.9638 H   0  0  0  0  0  0  0  0  0  0  0  0
    7.6465   -2.1895   -3.5191 H   0  0  0  0  0  0  0  0  0  0  0  0
    8.5698   -1.0739   -4.5504 H   0  0  0  0  0  0  0  0  0  0  0  0
    6.9451   -1.6079   -5.0459 H   0  0  0  0  0  0  0  0  0  0  0  0
    6.5302   -0.7865   -1.3368 H   0  0  0  0  0  0  0  0  0  0  0  0
    4.2868    4.5711   -1.8696 H   0  0  0  0  0  0  0  0  0  0  0  0
    5.7968    3.7995   -2.4405 H   0  0  0  0  0  0  0  0  0  0  0  0
    3.3360    6.3541    0.1418 H   0  0  0  0  0  0  0  0  0  0  0  0
    4.0375    6.5862   -1.4661 H   0  0  0  0  0  0  0  0  0  0  0  0
    5.1187    8.6978   -0.7336 H   0  0  0  0  0  0  0  0  0  0  0  0
    4.4549    8.4996    0.8928 H   0  0  0  0  0  0  0  0  0  0  0  0
    2.0170    8.7847    1.3284 H   0  0  0  0  0  0  0  0  0  0  0  0
   -0.1107    9.8354    0.6055 H   0  0  0  0  0  0  0  0  0  0  0  0
   -0.3745   10.6489   -1.7396 H   0  0  0  0  0  0  0  0  0  0  0  0
    1.5156   10.4006   -3.3512 H   0  0  0  0  0  0  0  0  0  0  0  0
    3.6421    9.3474   -2.6259 H   0  0  0  0  0  0  0  0  0  0  0  0
    4.8957    6.3559    1.9907 H   0  0  0  0  0  0  0  0  0  0  0  0
    6.6472    6.1840    1.7753 H   0  0  0  0  0  0  0  0  0  0  0  0
    5.1500    4.1815    2.7289 H   0  0  0  0  0  0  0  0  0  0  0  0
    7.3186    3.8526    0.9634 H   0  0  0  0  0  0  0  0  0  0  0  0
    3.6710    4.0991    0.6378 H   0  0  0  0  0  0  0  0  0  0  0  0
    4.3475    2.5736    1.2630 H   0  0  0  0  0  0  0  0  0  0  0  0
  1  2  1  0
  1 27  1  0
  1 28  1  0
  1 29  1  0
  2  3  2  0
  2 25  1  0
  3  4  1  0
  3 30  1  0
  4  5  1  0
  4 24  2  0
  5  6  2  0
  5  7  1  0
  7  8  1  0
  7 23  1  0
  8  9  1  0
  8 31  1  0
  8 32  1  0
  9 10  2  0
  9 11  1  0
 11 12  1  0
 11 20  1  0
 12 13  1  0
 12 33  1  0
 12 34  1  0
 13 14  1  0
 13 35  1  0
 13 36  1  0
 14 15  2  0
 14 19  1  0
 15 16  1  0
 15 37  1  0
 16 17  2  0
 16 38  1  0
 17 18  1  0
 17 39  1  0
 18 19  2  0
 18 40  1  0
 19 41  1  0
 20 21  1  0
 20 42  1  0
 20 43  1  0
 21 22  1  0
 21 23  1  0
 21 44  1  1
 22 45  1  0
 23 46  1  0
 23 47  1  0
 24 25  1  0
 25 26  1  0
M  END

