
     RDKit          3D

 46 49  0  0  0  0  0  0  0  0999 V2000
    3.9426    2.6223   -4.8236 C   0  0  0  0  0  0  0  0  0  0  0  0
    4.0631    1.6323   -3.8285 O   0  0  0  0  0  0  0  0  0  0  0  0
    3.8031    1.9560   -2.5403 C   0  0  0  0  0  0  0  0  0  0  0  0
    3.4483    3.2262   -2.0865 C   0  0  0  0  0  0  0  0  0  0  0  0
    3.1686    3.4669   -0.7226 C   0  0  0  0  0  0  0  0  0  0  0  0
    2.7599    4.8234   -0.2817 C   0  0  0  0  0  0  0  0  0  0  0  0
    1.6005    5.0509    0.4261 C   0  0  0  0  0  0  0  0  0  0  0  0
    0.6601    4.0307    0.7522 C   0  0  0  0  0  0  0  0  0  0  0  0
   -0.1499    3.2458    1.0399 N   0  0  0  0  0  0  0  0  0  0  0  0
    1.2509    6.4407    0.9471 C   0  0  1  0  0  0  0  0  0  0  0  0
    0.1661    6.6041    0.9263 H   0  0  0  0  0  0  0  0  0  0  0  0
    1.7358    6.6413    2.2532 N   0  0  0  0  0  0  0  0  0  0  0  0
    1.7196    7.4870   -0.0246 O   0  0  0  0  0  0  0  0  0  0  0  0
    2.9291    7.2509   -0.5132 C   0  0  0  0  0  0  0  0  0  0  0  0
    3.5275    5.9990   -0.6434 C   0  0  0  0  0  0  0  0  0  0  0  0
    4.8356    6.2970   -1.1604 C   0  0  0  0  0  0  0  0  0  0  0  0
    5.9787    5.3776   -1.4593 C   0  0  0  0  0  0  0  0  0  0  0  0
    4.9806    7.5984   -1.3394 N   0  0  0  0  0  0  0  0  0  0  0  0
    3.8057    8.1943   -0.9518 N   0  0  0  0  0  0  0  0  0  0  0  0
    3.6739    9.6046   -1.0168 C   0  0  0  0  0  0  0  0  0  0  0  0
    4.8272   10.3855   -1.1913 C   0  0  0  0  0  0  0  0  0  0  0  0
    4.7286   11.7741   -1.2586 C   0  0  0  0  0  0  0  0  0  0  0  0
    3.4772   12.3880   -1.1485 C   0  0  0  0  0  0  0  0  0  0  0  0
    3.3431   14.2878   -1.2344 Br  0  0  0  0  0  0  0  0  0  0  0  0
    2.3247   11.6177   -0.9804 C   0  0  0  0  0  0  0  0  0  0  0  0
    2.4192   10.2258   -0.9200 C   0  0  0  0  0  0  0  0  0  0  0  0
    3.2610    2.4054    0.1832 C   0  0  0  0  0  0  0  0  0  0  0  0
    3.6362    1.1330   -0.2608 C   0  0  0  0  0  0  0  0  0  0  0  0
    3.9049    0.8891   -1.6071 C   0  0  0  0  0  0  0  0  0  0  0  0
    4.2618   -0.3224   -2.0911 O   0  0  0  0  0  0  0  0  0  0  0  0
    4.1796    2.1354   -5.7789 H   0  0  0  0  0  0  0  0  0  0  0  0
    4.6496    3.4570   -4.6641 H   0  0  0  0  0  0  0  0  0  0  0  0
    2.9173    3.0318   -4.8742 H   0  0  0  0  0  0  0  0  0  0  0  0
    3.3545    4.0490   -2.7945 H   0  0  0  0  0  0  0  0  0  0  0  0
    2.7262    6.4388    2.3666 H   0  0  0  0  0  0  0  0  0  0  0  0
    1.4943    7.5446    2.6548 H   0  0  0  0  0  0  0  0  0  0  0  0
    6.1442    4.6655   -0.6367 H   0  0  0  0  0  0  0  0  0  0  0  0
    6.8904    5.9714   -1.6121 H   0  0  0  0  0  0  0  0  0  0  0  0
    5.7979    4.7795   -2.3658 H   0  0  0  0  0  0  0  0  0  0  0  0
    5.7919    9.8875   -1.2787 H   0  0  0  0  0  0  0  0  0  0  0  0
    5.6270   12.3785   -1.3940 H   0  0  0  0  0  0  0  0  0  0  0  0
    1.3483   12.0991   -0.9052 H   0  0  0  0  0  0  0  0  0  0  0  0
    1.5172    9.6286   -0.7997 H   0  0  0  0  0  0  0  0  0  0  0  0
    3.0519    2.5656    1.2419 H   0  0  0  0  0  0  0  0  0  0  0  0
    3.7155    0.3079    0.4540 H   0  0  0  0  0  0  0  0  0  0  0  0
    4.2726   -0.9628   -1.3674 H   0  0  0  0  0  0  0  0  0  0  0  0
  1  2  1  0
  1 31  1  0
  1 32  1  0
  1 33  1  0
  2  3  1  0
  3  4  2  0
  3 29  1  0
  4  5  1  0
  4 34  1  0
  5  6  1  0
  5 27  2  0
  6  7  2  0
  6 15  1  0
  7  8  1  0
  7 10  1  0
  8  9  3  0
 10 11  1  1
 10 12  1  0
 10 13  1  0
 12 35  1  0
 12 36  1  0
 13 14  1  0
 14 15  2  0
 14 19  1  0
 15 16  1  0
 16 17  1  0
 16 18  2  0
 17 37  1  0
 17 38  1  0
 17 39  1  0
 18 19  1  0
 19 20  1  0
 20 21  2  0
 20 26  1  0
 21 22  1  0
 21 40  1  0
 22 23  2  0
 22 41  1  0
 23 24  1  0
 23 25  1  0
 25 26  2  0
 25 42  1  0
 26 43  1  0
 27 28  1  0
 27 44  1  0
 28 29  2  0
 28 45  1  0
 29 30  1  0
 30 46  1  0
M  END

