
     RDKit          3D

 38 40  0  0  0  0  0  0  0  0999 V2000
    1.2257    0.1533   -0.5401 O   0  0  0  0  0  0  0  0  0  0  0  0
    2.5446    0.0344   -0.0560 C   0  0  1  0  0  0  0  0  0  0  0  0
    3.5058    0.2034   -1.2600 C   0  0  0  0  0  0  0  0  0  0  0  0
    3.1260    1.3754   -2.0421 N   0  0  0  0  0  0  0  0  0  0  0  0
    3.7237    1.4518   -3.3729 C   0  0  0  0  0  0  0  0  0  0  0  0
    3.2932    2.6961   -4.1213 C   0  0  0  0  0  0  0  0  0  0  0  0
    4.2389    3.5557   -4.6978 C   0  0  0  0  0  0  0  0  0  0  0  0
    3.8476    4.6968   -5.4053 C   0  0  0  0  0  0  0  0  0  0  0  0
    2.4899    4.9766   -5.5263 C   0  0  0  0  0  0  0  0  0  0  0  0
    2.1024    6.0699   -6.1997 F   0  0  0  0  0  0  0  0  0  0  0  0
    1.5216    4.1473   -4.9611 C   0  0  0  0  0  0  0  0  0  0  0  0
    1.9309    3.0116   -4.2620 C   0  0  0  0  0  0  0  0  0  0  0  0
    2.8647    1.0263    1.1052 C   0  0  0  0  0  0  0  0  0  0  0  0
    3.8575    0.2907    2.0326 C   0  0  0  0  0  0  0  0  0  0  0  0
    3.5323   -1.1683    1.7865 C   0  0  0  0  0  0  0  0  0  0  0  0
    3.8707   -2.2945    2.5410 C   0  0  0  0  0  0  0  0  0  0  0  0
    3.4291   -3.5543    2.1180 C   0  0  0  0  0  0  0  0  0  0  0  0
    2.6545   -3.6866    0.9574 C   0  0  0  0  0  0  0  0  0  0  0  0
    2.3184   -2.5592    0.1995 C   0  0  0  0  0  0  0  0  0  0  0  0
    2.7692   -1.3079    0.6203 C   0  0  0  0  0  0  0  0  0  0  0  0
    1.2986    0.7678   -1.2939 H   0  0  0  0  0  0  0  0  0  0  0  0
    3.3983   -0.6807   -1.9096 H   0  0  0  0  0  0  0  0  0  0  0  0
    4.5602    0.2197   -0.9142 H   0  0  0  0  0  0  0  0  0  0  0  0
    3.3359    2.2316   -1.5285 H   0  0  0  0  0  0  0  0  0  0  0  0
    3.4056    0.5520   -3.9308 H   0  0  0  0  0  0  0  0  0  0  0  0
    4.8334    1.4145   -3.3449 H   0  0  0  0  0  0  0  0  0  0  0  0
    5.3045    3.3321   -4.5951 H   0  0  0  0  0  0  0  0  0  0  0  0
    4.5779    5.3709   -5.8571 H   0  0  0  0  0  0  0  0  0  0  0  0
    0.4659    4.4004   -5.0776 H   0  0  0  0  0  0  0  0  0  0  0  0
    1.1813    2.3568   -3.8121 H   0  0  0  0  0  0  0  0  0  0  0  0
    1.9130    1.2007    1.6303 H   0  0  0  0  0  0  0  0  0  0  0  0
    3.2352    2.0056    0.7604 H   0  0  0  0  0  0  0  0  0  0  0  0
    3.7521    0.5800    3.0908 H   0  0  0  0  0  0  0  0  0  0  0  0
    4.9051    0.5078    1.7534 H   0  0  0  0  0  0  0  0  0  0  0  0
    4.4611   -2.1968    3.4567 H   0  0  0  0  0  0  0  0  0  0  0  0
    3.6807   -4.4418    2.7049 H   0  0  0  0  0  0  0  0  0  0  0  0
    2.3038   -4.6754    0.6498 H   0  0  0  0  0  0  0  0  0  0  0  0
    1.6968   -2.6448   -0.6954 H   0  0  0  0  0  0  0  0  0  0  0  0
  2  1  1  6
  1 21  1  0
  2  3  1  0
  2 13  1  0
  2 20  1  0
  3  4  1  0
  3 22  1  0
  3 23  1  0
  4  5  1  0
  4 24  1  0
  5  6  1  0
  5 25  1  0
  5 26  1  0
  6  7  2  0
  6 12  1  0
  7  8  1  0
  7 27  1  0
  8  9  2  0
  8 28  1  0
  9 10  1  0
  9 11  1  0
 11 12  2  0
 11 29  1  0
 12 30  1  0
 13 14  1  0
 13 31  1  0
 13 32  1  0
 14 15  1  0
 14 33  1  0
 14 34  1  0
 15 16  1  0
 15 20  2  0
 16 17  2  0
 16 35  1  0
 17 18  1  0
 17 36  1  0
 18 19  2  0
 18 37  1  0
 19 20  1  0
 19 38  1  0
M  END

