
     RDKit          3D

 40 43  0  0  0  0  0  0  0  0999 V2000
    0.7425    0.2117   -0.4153 C   0  0  0  0  0  0  0  0  0  0  0  0
    2.2684    0.1436   -0.3297 C   0  0  2  0  0  0  0  0  0  0  0  0
    2.7679   -1.1287    0.3599 C   0  0  0  0  0  0  0  0  0  0  0  0
    4.2944   -1.2366    0.3162 C   0  0  0  0  0  0  0  0  0  0  0  0
    5.0091    0.0461    0.7133 C   0  0  0  0  0  0  0  0  0  0  0  0
    6.4393    0.0511    0.9832 C   0  0  0  0  0  0  0  0  0  0  0  0
    7.2361   -1.2230    1.0080 C   0  0  0  0  0  0  0  0  0  0  0  0
    8.3638   -1.3454    0.1789 C   0  0  0  0  0  0  0  0  0  0  0  0
    9.1608   -2.4920    0.2136 C   0  0  0  0  0  0  0  0  0  0  0  0
    8.8610   -3.5343    1.0897 C   0  0  0  0  0  0  0  0  0  0  0  0
    7.7505   -3.4163    1.9457 C   0  0  0  0  0  0  0  0  0  0  0  0
    7.4369   -4.4700    2.8715 C   0  0  0  0  0  0  0  0  0  0  0  0
    7.1804   -5.3226    3.6173 N   0  0  0  0  0  0  0  0  0  0  0  0
    6.9452   -2.2634    1.8998 C   0  0  0  0  0  0  0  0  0  0  0  0
    7.1605    1.1315    1.1895 N   0  0  0  0  0  0  0  0  0  0  0  0
    6.5053    2.3154    1.2081 C   0  0  0  0  0  0  0  0  0  0  0  0
    7.0877    3.5003    1.4166 N   0  0  0  0  0  0  0  0  0  0  0  0
    6.0456    4.3637    1.3536 N   0  0  0  0  0  0  0  0  0  0  0  0
    6.2343    5.3524    1.4745 H   0  0  0  0  0  0  0  0  0  0  0  0
    4.8321    3.8069    1.1175 C   0  0  0  0  0  0  0  0  0  0  0  0
    3.6776    4.5597    0.9678 N   0  0  0  0  0  0  0  0  0  0  0  0
    5.0835    2.4260    1.0040 C   0  0  0  0  0  0  0  0  0  0  0  0
    4.3273    1.2581    0.7125 C   0  0  0  0  0  0  0  0  0  0  0  0
    2.8491    1.3635    0.3982 C   0  0  0  0  0  0  0  0  0  0  0  0
    0.3364   -0.6373   -0.9881 H   0  0  0  0  0  0  0  0  0  0  0  0
    0.4061    1.1390   -0.9078 H   0  0  0  0  0  0  0  0  0  0  0  0
    0.2876    0.1830    0.5899 H   0  0  0  0  0  0  0  0  0  0  0  0
    2.6718    0.1463   -1.3602 H   0  0  0  0  0  0  0  0  0  0  0  0
    2.3218   -2.0213   -0.1096 H   0  0  0  0  0  0  0  0  0  0  0  0
    2.4226   -1.1244    1.4108 H   0  0  0  0  0  0  0  0  0  0  0  0
    4.6116   -1.5137   -0.7074 H   0  0  0  0  0  0  0  0  0  0  0  0
    4.6136   -2.0766    0.9467 H   0  0  0  0  0  0  0  0  0  0  0  0
    8.6153   -0.5190   -0.4887 H   0  0  0  0  0  0  0  0  0  0  0  0
   10.0295   -2.5703   -0.4446 H   0  0  0  0  0  0  0  0  0  0  0  0
    9.4798   -4.4327    1.1253 H   0  0  0  0  0  0  0  0  0  0  0  0
    6.1056   -2.1771    2.5918 H   0  0  0  0  0  0  0  0  0  0  0  0
    3.6936    5.4767    1.4047 H   0  0  0  0  0  0  0  0  0  0  0  0
    2.8229    4.0628    1.1927 H   0  0  0  0  0  0  0  0  0  0  0  0
    2.6695    2.2735   -0.1996 H   0  0  0  0  0  0  0  0  0  0  0  0
    2.2954    1.5069    1.3483 H   0  0  0  0  0  0  0  0  0  0  0  0
  1  2  1  0
  1 25  1  0
  1 26  1  0
  1 27  1  0
  2  3  1  0
  2 24  1  0
  2 28  1  6
  3  4  1  0
  3 29  1  0
  3 30  1  0
  4  5  1  0
  4 31  1  0
  4 32  1  0
  5  6  1  0
  5 23  2  0
  6  7  1  0
  6 15  2  0
  7  8  2  0
  7 14  1  0
  8  9  1  0
  8 33  1  0
  9 10  2  0
  9 34  1  0
 10 11  1  0
 10 35  1  0
 11 12  1  0
 11 14  2  0
 12 13  3  0
 14 36  1  0
 15 16  1  0
 16 17  2  0
 16 22  1  0
 17 18  1  0
 18 19  1  0
 18 20  1  0
 20 21  1  0
 20 22  2  0
 21 37  1  0
 21 38  1  0
 22 23  1  0
 23 24  1  0
 24 39  1  0
 24 40  1  0
M  END

