
     RDKit          3D

 40 43  0  0  0  0  0  0  0  0999 V2000
    0.7018   -0.8840    0.1022 O   0  0  0  0  0  0  0  0  0  0  0  0
    1.8363   -0.7344   -0.3052 C   0  0  0  0  0  0  0  0  0  0  0  0
    2.2981    0.4747   -1.1171 C   0  0  0  0  0  0  0  0  0  0  0  0
    4.1208    0.4482   -1.1537 S   0  0  0  0  0  0  0  0  0  0  0  0
    4.1651   -1.3593   -0.6812 C   0  0  2  0  0  0  0  0  0  0  0  0
    4.9502   -1.4623    0.0824 H   0  0  0  0  0  0  0  0  0  0  0  0
    4.5229   -2.2552   -1.8301 C   0  0  0  0  0  0  0  0  0  0  0  0
    3.7340   -2.8098   -2.8246 C   0  0  0  0  0  0  0  0  0  0  0  0
    4.6133   -3.4971   -3.5974 N   0  0  0  0  0  0  0  0  0  0  0  0
    4.3740   -4.2508   -4.8219 C   0  0  0  0  0  0  0  0  0  0  0  0
    4.1868   -3.3734   -6.0462 C   0  0  0  0  0  0  0  0  0  0  0  0
    5.1433   -2.4007   -6.3762 C   0  0  0  0  0  0  0  0  0  0  0  0
    4.9754   -1.6131   -7.5155 C   0  0  0  0  0  0  0  0  0  0  0  0
    3.8604   -1.7824   -8.3438 C   0  0  0  0  0  0  0  0  0  0  0  0
    2.9140   -2.7526   -8.0101 C   0  0  0  0  0  0  0  0  0  0  0  0
    1.3825   -2.9998   -9.1196 Br  0  0  0  0  0  0  0  0  0  0  0  0
    3.0665   -3.5460   -6.8684 C   0  0  0  0  0  0  0  0  0  0  0  0
    5.8645   -3.3741   -3.1185 N   0  0  0  0  0  0  0  0  0  0  0  0
    5.8120   -2.6330   -2.0564 N   0  0  0  0  0  0  0  0  0  0  0  0
    2.8545   -1.6379   -0.1247 N   0  0  0  0  0  0  0  0  0  0  0  0
    2.6312   -2.8403    0.6809 C   0  0  0  0  0  0  0  0  0  0  0  0
    3.1208   -2.7286    2.0876 C   0  0  0  0  0  0  0  0  0  0  0  0
    2.4947   -2.4792    3.2784 C   0  0  0  0  0  0  0  0  0  0  0  0
    3.5212   -2.4624    4.2806 C   0  0  0  0  0  0  0  0  0  0  0  0
    4.6935   -2.6986    3.6225 C   0  0  0  0  0  0  0  0  0  0  0  0
    4.4637   -2.8623    2.2944 O   0  0  0  0  0  0  0  0  0  0  0  0
    1.9367    1.3890   -0.6266 H   0  0  0  0  0  0  0  0  0  0  0  0
    1.8492    0.4278   -2.1234 H   0  0  0  0  0  0  0  0  0  0  0  0
    2.6682   -2.7737   -3.0320 H   0  0  0  0  0  0  0  0  0  0  0  0
    3.4973   -4.8977   -4.6717 H   0  0  0  0  0  0  0  0  0  0  0  0
    5.2555   -4.8986   -4.9383 H   0  0  0  0  0  0  0  0  0  0  0  0
    6.0166   -2.2621   -5.7340 H   0  0  0  0  0  0  0  0  0  0  0  0
    5.7215   -0.8559   -7.7689 H   0  0  0  0  0  0  0  0  0  0  0  0
    3.7282   -1.1679   -9.2357 H   0  0  0  0  0  0  0  0  0  0  0  0
    2.3113   -4.2967   -6.6254 H   0  0  0  0  0  0  0  0  0  0  0  0
    3.1138   -3.6948    0.1791 H   0  0  0  0  0  0  0  0  0  0  0  0
    1.5457   -3.0056    0.6969 H   0  0  0  0  0  0  0  0  0  0  0  0
    1.4273   -2.3200    3.4163 H   0  0  0  0  0  0  0  0  0  0  0  0
    3.4001   -2.2974    5.3492 H   0  0  0  0  0  0  0  0  0  0  0  0
    5.7287   -2.7816    3.9434 H   0  0  0  0  0  0  0  0  0  0  0  0
  1  2  2  0
  2  3  1  0
  2 20  1  0
  3  4  1  0
  3 27  1  0
  3 28  1  0
  4  5  1  0
  5  6  1  1
  5  7  1  0
  5 20  1  0
  7  8  2  0
  7 19  1  0
  8  9  1  0
  8 29  1  0
  9 10  1  0
  9 18  1  0
 10 11  1  0
 10 30  1  0
 10 31  1  0
 11 12  2  0
 11 17  1  0
 12 13  1  0
 12 32  1  0
 13 14  2  0
 13 33  1  0
 14 15  1  0
 14 34  1  0
 15 16  1  0
 15 17  2  0
 17 35  1  0
 18 19  2  0
 20 21  1  0
 21 22  1  0
 21 36  1  0
 21 37  1  0
 22 23  2  0
 22 26  1  0
 23 24  1  0
 23 38  1  0
 24 25  2  0
 24 39  1  0
 25 26  1  0
 25 40  1  0
M  END

