
     RDKit          3D

 44 45  0  0  0  0  0  0  0  0999 V2000
    2.2436   -0.7729   -0.3366 C   0  0  0  0  0  0  0  0  0  0  0  0
    3.2688    0.0321   -0.8711 O   0  0  0  0  0  0  0  0  0  0  0  0
    3.7278    1.0882   -0.1516 C   0  0  0  0  0  0  0  0  0  0  0  0
    3.2517    1.4582    1.1146 C   0  0  0  0  0  0  0  0  0  0  0  0
    3.8002    2.5711    1.7639 C   0  0  0  0  0  0  0  0  0  0  0  0
    4.8189    3.3373    1.1861 C   0  0  0  0  0  0  0  0  0  0  0  0
    5.4281    4.5158    1.9139 C   0  0  0  0  0  0  0  0  0  0  0  0
    6.6776    4.1356    2.7193 C   0  0  0  0  0  0  0  0  0  0  0  0
    7.2951    5.3029    3.4561 C   0  0  0  0  0  0  0  0  0  0  0  0
    6.8794    6.4323    3.4723 O   0  0  0  0  0  0  0  0  0  0  0  0
    8.4143    4.9141    4.1270 O   0  0  0  0  0  0  0  0  0  0  0  0
    9.1398    5.9082    4.8747 C   0  0  1  0  0  0  0  0  0  0  0  0
    8.6594    5.9649    6.3192 C   0  0  0  0  0  0  0  0  0  0  0  0
   10.6453    5.6128    4.7892 C   0  0  0  0  0  0  0  0  0  0  0  0
   11.4330    6.2986    5.4149 O   0  0  0  0  0  0  0  0  0  0  0  0
   10.9794    4.5679    3.9688 N   0  0  0  0  0  0  0  0  0  0  0  0
   12.2498    4.0853    3.6541 C   0  0  0  0  0  0  0  0  0  0  0  0
   13.4466    4.6136    4.1658 C   0  0  0  0  0  0  0  0  0  0  0  0
   14.6619    4.0479    3.7749 C   0  0  0  0  0  0  0  0  0  0  0  0
   14.6595    2.9729    2.8872 C   0  0  0  0  0  0  0  0  0  0  0  0
   13.5236    2.4647    2.3962 N   0  0  0  0  0  0  0  0  0  0  0  0
   12.3844    2.9929    2.7604 C   0  0  0  0  0  0  0  0  0  0  0  0
   10.9148    2.2759    2.0767 Cl  0  0  0  0  0  0  0  0  0  0  0  0
    5.2801    2.9507   -0.0861 C   0  0  0  0  0  0  0  0  0  0  0  0
    4.7492    1.8487   -0.7478 C   0  0  0  0  0  0  0  0  0  0  0  0
    2.0384   -1.5549   -1.0802 H   0  0  0  0  0  0  0  0  0  0  0  0
    1.3167   -0.1974   -0.1594 H   0  0  0  0  0  0  0  0  0  0  0  0
    2.5478   -1.2534    0.6113 H   0  0  0  0  0  0  0  0  0  0  0  0
    2.4554    0.8958    1.6026 H   0  0  0  0  0  0  0  0  0  0  0  0
    3.4111    2.8483    2.7485 H   0  0  0  0  0  0  0  0  0  0  0  0
    4.6895    4.9647    2.5963 H   0  0  0  0  0  0  0  0  0  0  0  0
    5.6965    5.3081    1.1970 H   0  0  0  0  0  0  0  0  0  0  0  0
    7.4540    3.6940    2.0709 H   0  0  0  0  0  0  0  0  0  0  0  0
    6.4492    3.3531    3.4635 H   0  0  0  0  0  0  0  0  0  0  0  0
    8.9781    6.8870    4.3953 H   0  0  0  0  0  0  0  0  0  0  0  0
    8.7316    4.9729    6.7913 H   0  0  0  0  0  0  0  0  0  0  0  0
    7.6155    6.3074    6.3564 H   0  0  0  0  0  0  0  0  0  0  0  0
    9.2881    6.6701    6.8803 H   0  0  0  0  0  0  0  0  0  0  0  0
   10.1987    4.0750    3.5419 H   0  0  0  0  0  0  0  0  0  0  0  0
   13.3959    5.4531    4.8566 H   0  0  0  0  0  0  0  0  0  0  0  0
   15.6029    4.4449    4.1619 H   0  0  0  0  0  0  0  0  0  0  0  0
   15.5916    2.5027    2.5576 H   0  0  0  0  0  0  0  0  0  0  0  0
    6.0693    3.5320   -0.5729 H   0  0  0  0  0  0  0  0  0  0  0  0
    5.1046    1.5536   -1.7372 H   0  0  0  0  0  0  0  0  0  0  0  0
  1  2  1  0
  1 26  1  0
  1 27  1  0
  1 28  1  0
  2  3  1  0
  3  4  2  0
  3 25  1  0
  4  5  1  0
  4 29  1  0
  5  6  2  0
  5 30  1  0
  6  7  1  0
  6 24  1  0
  7  8  1  0
  7 31  1  0
  7 32  1  0
  8  9  1  0
  8 33  1  0
  8 34  1  0
  9 10  2  0
  9 11  1  0
 11 12  1  0
 12 13  1  0
 12 14  1  0
 12 35  1  6
 13 36  1  0
 13 37  1  0
 13 38  1  0
 14 15  2  0
 14 16  1  0
 16 17  1  0
 16 39  1  0
 17 18  2  0
 17 22  1  0
 18 19  1  0
 18 40  1  0
 19 20  2  0
 19 41  1  0
 20 21  1  0
 20 42  1  0
 21 22  2  0
 22 23  1  0
 24 25  2  0
 24 43  1  0
 25 44  1  0
M  END

