
     RDKit          3D

 54 53  0  0  0  0  0  0  0  0999 V2000
    5.0360    0.2275   -2.3056 C   0  0  0  0  0  0  0  0  0  0  0  0
    3.8204    0.3910   -1.4091 C   0  0  0  0  0  0  0  0  0  0  0  0
    3.9882    1.4766   -0.4743 O   0  0  0  0  0  0  0  0  0  0  0  0
    4.6037    1.2078    0.6934 C   0  0  0  0  0  0  0  0  0  0  0  0
    5.0280    0.1121    0.9797 O   0  0  0  0  0  0  0  0  0  0  0  0
    4.7544    2.4378    1.6281 C   0  0  1  0  0  0  0  0  0  0  0  0
    4.2626    3.7373    0.9793 C   0  0  0  0  0  0  0  0  0  0  0  0
    4.0049    2.1441    2.9564 C   0  0  0  0  0  0  0  0  0  0  0  0
    2.4671    2.1860    2.9927 C   0  0  1  0  0  0  0  0  0  0  0  0
    1.7770    1.0955    2.1810 C   0  0  0  0  0  0  0  0  0  0  0  0
    2.0432    2.0168    4.3426 O   0  0  0  0  0  0  0  0  0  0  0  0
    1.9904    3.1860    5.1222 C   0  0  0  0  0  0  0  0  0  0  0  0
    1.7441    2.8145    6.5700 C   0  0  0  0  0  0  0  0  0  0  0  0
    2.9201    2.2760    7.1186 O   0  0  0  0  0  0  0  0  0  0  0  0
    2.8305    1.8181    8.4614 C   0  0  1  0  0  0  0  0  0  0  0  0
    2.1684    0.4404    8.5446 C   0  0  0  0  0  0  0  0  0  0  0  0
    4.2498    1.8120    9.0169 C   0  0  0  0  0  0  0  0  0  0  0  0
    6.1709    2.5600    2.0038 N   0  0  0  0  0  0  0  0  0  0  0  0
    7.1822    2.7127    0.9401 C   0  0  1  0  0  0  0  0  0  0  0  0
    7.7720    4.1295    0.9476 C   0  0  0  0  0  0  0  0  0  0  0  0
    8.2788    1.6545    1.1006 C   0  0  0  0  0  0  0  0  0  0  0  0
    4.8453   -0.5586   -3.0539 H   0  0  0  0  0  0  0  0  0  0  0  0
    5.9178   -0.0675   -1.7182 H   0  0  0  0  0  0  0  0  0  0  0  0
    5.2610    1.1633   -2.8407 H   0  0  0  0  0  0  0  0  0  0  0  0
    3.6187   -0.5324   -0.8468 H   0  0  0  0  0  0  0  0  0  0  0  0
    2.9282    0.6615   -1.9925 H   0  0  0  0  0  0  0  0  0  0  0  0
    3.2103    3.6668    0.6734 H   0  0  0  0  0  0  0  0  0  0  0  0
    4.8406    3.9818    0.0776 H   0  0  0  0  0  0  0  0  0  0  0  0
    4.3741    4.5639    1.6970 H   0  0  0  0  0  0  0  0  0  0  0  0
    4.3886    2.8845    3.6751 H   0  0  0  0  0  0  0  0  0  0  0  0
    4.3211    1.1536    3.3233 H   0  0  0  0  0  0  0  0  0  0  0  0
    2.1156    3.1724    2.6305 H   0  0  0  0  0  0  0  0  0  0  0  0
    2.1348    0.1007    2.4885 H   0  0  0  0  0  0  0  0  0  0  0  0
    1.9605    1.2173    1.1040 H   0  0  0  0  0  0  0  0  0  0  0  0
    0.6912    1.1393    2.3546 H   0  0  0  0  0  0  0  0  0  0  0  0
    1.1712    3.8518    4.7757 H   0  0  0  0  0  0  0  0  0  0  0  0
    2.9339    3.7633    5.0659 H   0  0  0  0  0  0  0  0  0  0  0  0
    0.9008    2.0975    6.6081 H   0  0  0  0  0  0  0  0  0  0  0  0
    1.4317    3.7243    7.1267 H   0  0  0  0  0  0  0  0  0  0  0  0
    2.2227    2.5414    9.0469 H   0  0  0  0  0  0  0  0  0  0  0  0
    2.7518   -0.2944    7.9671 H   0  0  0  0  0  0  0  0  0  0  0  0
    1.1444    0.4539    8.1408 H   0  0  0  0  0  0  0  0  0  0  0  0
    2.1094    0.0977    9.5901 H   0  0  0  0  0  0  0  0  0  0  0  0
    4.8814    1.1240    8.4324 H   0  0  0  0  0  0  0  0  0  0  0  0
    4.2614    1.4874   10.0690 H   0  0  0  0  0  0  0  0  0  0  0  0
    4.6919    2.8176    8.9525 H   0  0  0  0  0  0  0  0  0  0  0  0
    6.4098    1.7603    2.5864 H   0  0  0  0  0  0  0  0  0  0  0  0
    6.7111    2.5484   -0.0492 H   0  0  0  0  0  0  0  0  0  0  0  0
    8.2734    4.3254    1.9094 H   0  0  0  0  0  0  0  0  0  0  0  0
    6.9859    4.8890    0.8242 H   0  0  0  0  0  0  0  0  0  0  0  0
    8.5082    4.2616    0.1370 H   0  0  0  0  0  0  0  0  0  0  0  0
    8.7675    1.7546    2.0855 H   0  0  0  0  0  0  0  0  0  0  0  0
    9.0586    1.7665    0.3311 H   0  0  0  0  0  0  0  0  0  0  0  0
    7.8588    0.6392    1.0261 H   0  0  0  0  0  0  0  0  0  0  0  0
  1  2  1  0
  1 22  1  0
  1 23  1  0
  1 24  1  0
  2  3  1  0
  2 25  1  0
  2 26  1  0
  3  4  1  0
  4  5  2  0
  6  4  1  6
  6  7  1  0
  6  8  1  0
  6 18  1  0
  7 27  1  0
  7 28  1  0
  7 29  1  0
  8  9  1  0
  8 30  1  0
  8 31  1  0
  9 10  1  0
  9 11  1  0
  9 32  1  6
 10 33  1  0
 10 34  1  0
 10 35  1  0
 11 12  1  0
 12 13  1  0
 12 36  1  0
 12 37  1  0
 13 14  1  0
 13 38  1  0
 13 39  1  0
 14 15  1  0
 15 16  1  0
 15 17  1  0
 15 40  1  1
 16 41  1  0
 16 42  1  0
 16 43  1  0
 17 44  1  0
 17 45  1  0
 17 46  1  0
 18 19  1  0
 18 47  1  0
 19 20  1  0
 19 21  1  0
 19 48  1  6
 20 49  1  0
 20 50  1  0
 20 51  1  0
 21 52  1  0
 21 53  1  0
 21 54  1  0
M  END

