
     RDKit          3D

 20 19  0  0  0  0  0  0  0  0999 V2000
    0.8742   -0.0603   -0.0364 C   0  0  0  0  0  0  0  0  0  0  0  0
    2.4046   -0.0842   -0.0049 C   0  0  0  0  0  0  0  0  0  0  0  0
    2.9807   -0.9095    1.1515 C   0  0  0  0  0  0  0  0  0  0  0  0
    4.5126   -0.9387    1.1912 C   0  0  0  0  0  0  0  0  0  0  0  0
    5.0886   -1.7644    2.3472 C   0  0  0  0  0  0  0  0  0  0  0  0
    6.6191   -1.7877    2.3792 C   0  0  0  0  0  0  0  0  0  0  0  0
    0.4955    0.5407   -0.8790 H   0  0  0  0  0  0  0  0  0  0  0  0
    0.4613    0.3703    0.8916 H   0  0  0  0  0  0  0  0  0  0  0  0
    0.4599   -1.0775   -0.1406 H   0  0  0  0  0  0  0  0  0  0  0  0
    2.7878    0.9504    0.0626 H   0  0  0  0  0  0  0  0  0  0  0  0
    2.7865   -0.4856   -0.9614 H   0  0  0  0  0  0  0  0  0  0  0  0
    2.5985   -1.9453    1.0842 H   0  0  0  0  0  0  0  0  0  0  0  0
    2.5993   -0.5085    2.1092 H   0  0  0  0  0  0  0  0  0  0  0  0
    4.8947    0.0972    1.2588 H   0  0  0  0  0  0  0  0  0  0  0  0
    4.8940   -1.3393    0.2333 H   0  0  0  0  0  0  0  0  0  0  0  0
    4.7058   -2.7991    2.2790 H   0  0  0  0  0  0  0  0  0  0  0  0
    4.7064   -1.3637    3.3039 H   0  0  0  0  0  0  0  0  0  0  0  0
    7.0324   -2.2174    1.4510 H   0  0  0  0  0  0  0  0  0  0  0  0
    6.9977   -2.3893    3.2214 H   0  0  0  0  0  0  0  0  0  0  0  0
    7.0329   -0.7705    2.4842 H   0  0  0  0  0  0  0  0  0  0  0  0
  1  2  1  0
  1  7  1  0
  1  8  1  0
  1  9  1  0
  2  3  1  0
  2 10  1  0
  2 11  1  0
  3  4  1  0
  3 12  1  0
  3 13  1  0
  4  5  1  0
  4 14  1  0
  4 15  1  0
  5  6  1  0
  5 16  1  0
  5 17  1  0
  6 18  1  0
  6 19  1  0
  6 20  1  0
M  END

