
     RDKit          3D

 43 44  0  0  0  0  0  0  0  0999 V2000
    1.9133    5.0933   -5.2640 C   0  0  0  0  0  0  0  0  0  0  0  0
    3.1943    4.7279   -4.8194 O   0  0  0  0  0  0  0  0  0  0  0  0
    3.1855    3.6947   -3.8653 C   0  0  0  0  0  0  0  0  0  0  0  0
    4.6380    3.4137   -3.4682 C   0  0  1  0  0  0  0  0  0  0  0  0
    5.3434    4.6169   -2.8570 C   0  0  0  0  0  0  0  0  0  0  0  0
    4.6409    1.9840   -2.3215 S   0  0  1  0  0  0  0  0  0  0  0  0
    4.1515    2.4552   -1.0180 O   0  0  0  0  0  0  0  0  0  0  0  0
    3.9617    0.8826   -3.0220 O   0  0  0  0  0  0  0  0  0  0  0  0
    6.2752    1.6083   -2.1541 N   0  0  0  0  0  0  0  0  0  0  0  0
    6.8889    1.6953   -0.8214 C   0  0  0  0  0  0  0  0  0  0  0  0
    6.8725    0.3511   -0.0867 C   0  0  0  0  0  0  0  0  0  0  0  0
    7.4733   -0.8084   -0.9139 C   0  0  2  0  0  0  0  0  0  0  0  0
    7.2699   -2.1737   -0.1855 C   0  0  0  0  0  0  0  0  0  0  0  0
    8.5725   -2.9590   -0.3842 C   0  0  0  0  0  0  0  0  0  0  0  0
    9.6395   -1.8645   -0.2718 C   0  0  0  0  0  0  0  0  0  0  0  0
    9.0340   -0.6862   -1.0583 C   0  0  0  0  0  0  0  0  0  0  0  0
    6.7764   -0.8215   -2.2957 C   0  0  0  0  0  0  0  0  0  0  0  0
    6.8212    0.5374   -3.0005 C   0  0  0  0  0  0  0  0  0  0  0  0
    2.0325    5.8975   -6.0045 H   0  0  0  0  0  0  0  0  0  0  0  0
    1.2781    5.4657   -4.4352 H   0  0  0  0  0  0  0  0  0  0  0  0
    1.3842    4.2452   -5.7434 H   0  0  0  0  0  0  0  0  0  0  0  0
    2.7266    2.7752   -4.2751 H   0  0  0  0  0  0  0  0  0  0  0  0
    2.6047    3.9850   -2.9654 H   0  0  0  0  0  0  0  0  0  0  0  0
    5.1793    3.0468   -4.3553 H   0  0  0  0  0  0  0  0  0  0  0  0
    4.8454    4.9249   -1.9254 H   0  0  0  0  0  0  0  0  0  0  0  0
    5.2989    5.4514   -3.5712 H   0  0  0  0  0  0  0  0  0  0  0  0
    6.3976    4.3931   -2.6382 H   0  0  0  0  0  0  0  0  0  0  0  0
    6.3581    2.4590   -0.2401 H   0  0  0  0  0  0  0  0  0  0  0  0
    7.9256    2.0487   -0.9653 H   0  0  0  0  0  0  0  0  0  0  0  0
    5.8256    0.1115    0.1687 H   0  0  0  0  0  0  0  0  0  0  0  0
    7.4174    0.4527    0.8682 H   0  0  0  0  0  0  0  0  0  0  0  0
    6.3758   -2.7062   -0.5463 H   0  0  0  0  0  0  0  0  0  0  0  0
    7.1189   -1.9944    0.8933 H   0  0  0  0  0  0  0  0  0  0  0  0
    8.6013   -3.4128   -1.3908 H   0  0  0  0  0  0  0  0  0  0  0  0
    8.7012   -3.7766    0.3428 H   0  0  0  0  0  0  0  0  0  0  0  0
   10.6292   -2.1677   -0.6490 H   0  0  0  0  0  0  0  0  0  0  0  0
    9.7705   -1.5879    0.7891 H   0  0  0  0  0  0  0  0  0  0  0  0
    9.3237   -0.7670   -2.1195 H   0  0  0  0  0  0  0  0  0  0  0  0
    9.4190    0.2843   -0.7073 H   0  0  0  0  0  0  0  0  0  0  0  0
    5.7159   -1.0944   -2.1693 H   0  0  0  0  0  0  0  0  0  0  0  0
    7.2328   -1.5885   -2.9452 H   0  0  0  0  0  0  0  0  0  0  0  0
    6.2534    0.4983   -3.9396 H   0  0  0  0  0  0  0  0  0  0  0  0
    7.8587    0.8179   -3.2558 H   0  0  0  0  0  0  0  0  0  0  0  0
  1  2  1  0
  1 19  1  0
  1 20  1  0
  1 21  1  0
  2  3  1  0
  3  4  1  0
  3 22  1  0
  3 23  1  0
  4  5  1  0
  4  6  1  0
  4 24  1  6
  5 25  1  0
  5 26  1  0
  5 27  1  0
  6  7  2  0
  6  8  2  0
  6  9  1  1
  9 10  1  0
  9 18  1  0
 10 11  1  0
 10 28  1  0
 10 29  1  0
 12 11  1  1
 11 30  1  0
 11 31  1  0
 12 13  1  0
 12 16  1  0
 12 17  1  0
 13 14  1  0
 13 32  1  0
 13 33  1  0
 14 15  1  0
 14 34  1  0
 14 35  1  0
 15 16  1  0
 15 36  1  0
 15 37  1  0
 16 38  1  0
 16 39  1  0
 17 18  1  0
 17 40  1  0
 17 41  1  0
 18 42  1  0
 18 43  1  0
M  END

