
     RDKit          3D

 37 39  0  0  0  0  0  0  0  0999 V2000
    1.8438   -0.2590    0.8364 N   0  0  0  0  0  0  0  0  0  0  0  0
    3.0807   -0.0923    0.0917 C   0  0  0  0  0  0  0  0  0  0  0  0
    3.0330    1.1498   -0.8190 C   0  0  1  0  0  0  0  0  0  0  0  0
    2.5703    2.3350   -0.1074 N   0  0  0  0  0  0  0  0  0  0  0  0
    1.2533    2.6964   -0.0940 C   0  0  0  0  0  0  0  0  0  0  0  0
    0.3973    2.1160   -0.7510 O   0  0  0  0  0  0  0  0  0  0  0  0
    0.8996    3.8794    0.7709 C   0  0  0  0  0  0  0  0  0  0  0  0
    1.8275    4.8363    1.2121 C   0  0  0  0  0  0  0  0  0  0  0  0
    1.4048    5.9142    1.9892 C   0  0  0  0  0  0  0  0  0  0  0  0
    0.0601    6.0511    2.3578 C   0  0  0  0  0  0  0  0  0  0  0  0
   -0.8808    5.0951    1.9114 C   0  0  0  0  0  0  0  0  0  0  0  0
   -0.4496    4.0355    1.1060 C   0  0  0  0  0  0  0  0  0  0  0  0
   -2.2288    5.1751    2.2898 N   0  0  0  0  0  0  0  0  0  0  0  0
   -2.9238    6.2692    2.7580 C   0  0  0  0  0  0  0  0  0  0  0  0
   -4.0953    6.1987    3.0670 O   0  0  0  0  0  0  0  0  0  0  0  0
   -2.1411    7.5735    2.8014 C   0  0  0  0  0  0  0  0  0  0  0  0
   -0.4416    7.3625    3.4384 S   0  0  0  0  0  0  0  0  0  0  0  0
    4.3701    1.4024   -1.4908 C   0  0  1  0  0  0  0  0  0  0  0  0
    4.7066    0.7142   -2.7910 C   0  0  0  0  0  0  0  0  0  0  0  0
    4.4374    2.1969   -2.7682 C   0  0  0  0  0  0  0  0  0  0  0  0
    1.8568   -1.1218    1.3777 H   0  0  0  0  0  0  0  0  0  0  0  0
    1.0417   -0.3008    0.2068 H   0  0  0  0  0  0  0  0  0  0  0  0
    3.3630   -0.9511   -0.5553 H   0  0  0  0  0  0  0  0  0  0  0  0
    3.9106    0.0271    0.8145 H   0  0  0  0  0  0  0  0  0  0  0  0
    2.2718    0.9725   -1.5950 H   0  0  0  0  0  0  0  0  0  0  0  0
    3.1691    2.6996    0.6239 H   0  0  0  0  0  0  0  0  0  0  0  0
    2.8779    4.7742    0.9198 H   0  0  0  0  0  0  0  0  0  0  0  0
    2.1226    6.6712    2.3138 H   0  0  0  0  0  0  0  0  0  0  0  0
   -1.1613    3.2984    0.7271 H   0  0  0  0  0  0  0  0  0  0  0  0
   -2.8023    4.3459    2.1627 H   0  0  0  0  0  0  0  0  0  0  0  0
   -2.6669    8.2606    3.4757 H   0  0  0  0  0  0  0  0  0  0  0  0
   -2.1146    8.0207    1.7930 H   0  0  0  0  0  0  0  0  0  0  0  0
    5.2050    1.5375   -0.7907 H   0  0  0  0  0  0  0  0  0  0  0  0
    3.9464    0.0630   -3.2335 H   0  0  0  0  0  0  0  0  0  0  0  0
    5.7328    0.3696   -2.9463 H   0  0  0  0  0  0  0  0  0  0  0  0
    3.4933    2.5547   -3.1895 H   0  0  0  0  0  0  0  0  0  0  0  0
    5.2784    2.8813   -2.9102 H   0  0  0  0  0  0  0  0  0  0  0  0
  1  2  1  0
  1 21  1  0
  1 22  1  0
  2  3  1  0
  2 23  1  0
  2 24  1  0
  3  4  1  0
  3 18  1  0
  3 25  1  6
  4  5  1  0
  4 26  1  0
  5  6  2  0
  5  7  1  0
  7  8  2  0
  7 12  1  0
  8  9  1  0
  8 27  1  0
  9 10  2  0
  9 28  1  0
 10 11  1  0
 10 17  1  0
 11 12  2  0
 11 13  1  0
 12 29  1  0
 13 14  1  0
 13 30  1  0
 14 15  2  0
 14 16  1  0
 16 17  1  0
 16 31  1  0
 16 32  1  0
 18 19  1  0
 18 20  1  0
 18 33  1  1
 19 20  1  0
 19 34  1  0
 19 35  1  0
 20 36  1  0
 20 37  1  0
M  END

