
     RDKit          3D

 56 60  0  0  0  0  0  0  0  0999 V2000
    3.6550    2.5125    2.1065 O   0  0  0  0  0  0  0  0  0  0  0  0
    4.4266    2.0151    1.3264 C   0  0  0  0  0  0  0  0  0  0  0  0
    5.7434    2.0783    1.5248 O   0  0  0  0  0  0  0  0  0  0  0  0
    3.8665    1.2294    0.1259 C   0  0  0  0  0  0  0  0  0  0  0  0
    4.7971    0.6261   -0.9359 C   0  0  1  0  0  0  0  0  0  0  0  0
    4.0354   -0.4187   -1.7863 C   0  0  0  0  0  0  0  0  0  0  0  0
    4.8494   -1.0518   -2.8869 C   0  0  0  0  0  0  0  0  0  0  0  0
    5.7666   -2.0460   -2.6860 C   0  0  0  0  0  0  0  0  0  0  0  0
    6.5925   -2.5590   -4.1311 S   0  0  0  0  0  0  0  0  0  0  0  0
    5.6861   -1.4100   -5.0905 C   0  0  0  0  0  0  0  0  0  0  0  0
    5.7831   -1.2041   -6.4739 C   0  0  0  0  0  0  0  0  0  0  0  0
    4.9666   -0.2422   -7.0624 C   0  0  0  0  0  0  0  0  0  0  0  0
    4.0603    0.5047   -6.2838 C   0  0  0  0  0  0  0  0  0  0  0  0
    3.9632    0.2975   -4.9123 C   0  0  0  0  0  0  0  0  0  0  0  0
    4.7816   -0.6669   -4.2845 C   0  0  0  0  0  0  0  0  0  0  0  0
    5.4158    1.6329   -1.7979 N   0  0  0  0  0  0  0  0  0  0  0  0
    6.6756    2.0834   -1.5962 C   0  0  0  0  0  0  0  0  0  0  0  0
    7.3470    1.8197   -0.6030 O   0  0  0  0  0  0  0  0  0  0  0  0
    7.1004    2.8608   -2.6031 O   0  0  0  0  0  0  0  0  0  0  0  0
    8.3985    3.4673   -2.4646 C   0  0  0  0  0  0  0  0  0  0  0  0
    9.5264    2.5508   -2.9605 C   0  0  2  0  0  0  0  0  0  0  0  0
   10.8944    3.1727   -2.7237 C   0  0  0  0  0  0  0  0  0  0  0  0
   11.4737    3.5970   -1.5294 C   0  0  0  0  0  0  0  0  0  0  0  0
   12.7624    4.1482   -1.5578 C   0  0  0  0  0  0  0  0  0  0  0  0
   13.4582    4.2695   -2.7679 C   0  0  0  0  0  0  0  0  0  0  0  0
   12.8818    3.8419   -3.9687 C   0  0  0  0  0  0  0  0  0  0  0  0
   11.5952    3.2932   -3.9438 C   0  0  0  0  0  0  0  0  0  0  0  0
   10.7514    2.7574   -5.0223 C   0  0  0  0  0  0  0  0  0  0  0  0
   10.9869    2.6430   -6.3963 C   0  0  0  0  0  0  0  0  0  0  0  0
    9.9959    2.0803   -7.2072 C   0  0  0  0  0  0  0  0  0  0  0  0
    8.7885    1.6362   -6.6526 C   0  0  0  0  0  0  0  0  0  0  0  0
    8.5501    1.7467   -5.2755 C   0  0  0  0  0  0  0  0  0  0  0  0
    9.5329    2.3095   -4.4626 C   0  0  0  0  0  0  0  0  0  0  0  0
    6.3174    1.8101    0.7668 H   0  0  0  0  0  0  0  0  0  0  0  0
    3.1223    1.8874   -0.3518 H   0  0  0  0  0  0  0  0  0  0  0  0
    3.2812    0.4172    0.5885 H   0  0  0  0  0  0  0  0  0  0  0  0
    5.6295    0.1084   -0.4341 H   0  0  0  0  0  0  0  0  0  0  0  0
    3.1315    0.0521   -2.2089 H   0  0  0  0  0  0  0  0  0  0  0  0
    3.6703   -1.1963   -1.0977 H   0  0  0  0  0  0  0  0  0  0  0  0
    6.0139   -2.5255   -1.7383 H   0  0  0  0  0  0  0  0  0  0  0  0
    6.4830   -1.7872   -7.0768 H   0  0  0  0  0  0  0  0  0  0  0  0
    5.0256   -0.0695   -8.1398 H   0  0  0  0  0  0  0  0  0  0  0  0
    3.4230    1.2502   -6.7653 H   0  0  0  0  0  0  0  0  0  0  0  0
    3.2399    0.8729   -4.3280 H   0  0  0  0  0  0  0  0  0  0  0  0
    4.9528    1.9204   -2.6537 H   0  0  0  0  0  0  0  0  0  0  0  0
    8.5566    3.7249   -1.4088 H   0  0  0  0  0  0  0  0  0  0  0  0
    8.3526    4.3852   -3.0659 H   0  0  0  0  0  0  0  0  0  0  0  0
    9.4432    1.5987   -2.4060 H   0  0  0  0  0  0  0  0  0  0  0  0
   10.9413    3.4966   -0.5795 H   0  0  0  0  0  0  0  0  0  0  0  0
   13.2290    4.4829   -0.6279 H   0  0  0  0  0  0  0  0  0  0  0  0
   14.4627    4.7004   -2.7728 H   0  0  0  0  0  0  0  0  0  0  0  0
   13.4321    3.9359   -4.9083 H   0  0  0  0  0  0  0  0  0  0  0  0
   11.9286    2.9855   -6.8329 H   0  0  0  0  0  0  0  0  0  0  0  0
   10.1657    1.9848   -8.2828 H   0  0  0  0  0  0  0  0  0  0  0  0
    8.0222    1.1969   -7.2958 H   0  0  0  0  0  0  0  0  0  0  0  0
    7.6065    1.3956   -4.8537 H   0  0  0  0  0  0  0  0  0  0  0  0
  1  2  2  0
  2  3  1  0
  2  4  1  0
  3 34  1  0
  4  5  1  0
  4 35  1  0
  4 36  1  0
  5  6  1  0
  5 16  1  0
  5 37  1  1
  6  7  1  0
  6 38  1  0
  6 39  1  0
  7  8  2  0
  7 15  1  0
  8  9  1  0
  8 40  1  0
  9 10  1  0
 10 11  1  0
 10 15  2  0
 11 12  2  0
 11 41  1  0
 12 13  1  0
 12 42  1  0
 13 14  2  0
 13 43  1  0
 14 15  1  0
 14 44  1  0
 16 17  1  0
 16 45  1  0
 17 18  2  0
 17 19  1  0
 19 20  1  0
 20 21  1  0
 20 46  1  0
 20 47  1  0
 21 22  1  0
 21 33  1  0
 21 48  1  1
 22 23  2  0
 22 27  1  0
 23 24  1  0
 23 49  1  0
 24 25  2  0
 24 50  1  0
 25 26  1  0
 25 51  1  0
 26 27  2  0
 26 52  1  0
 27 28  1  0
 28 29  2  0
 28 33  1  0
 29 30  1  0
 29 53  1  0
 30 31  2  0
 30 54  1  0
 31 32  1  0
 31 55  1  0
 32 33  2  0
 32 56  1  0
M  END

