
     RDKit          3D

 43 44  0  0  0  0  0  0  0  0999 V2000
    1.6381    2.3839   -0.6154 C   0  0  0  0  0  0  0  0  0  0  0  0
    2.9142    2.2972    0.0931 N   0  0  0  0  0  0  0  0  0  0  0  0
    3.3879    3.4663    0.8288 C   0  0  0  0  0  0  0  0  0  0  0  0
    2.5608    3.8714    2.0810 C   0  0  1  0  0  0  0  0  0  0  0  0
    2.4976    2.7400    3.1088 C   0  0  0  0  0  0  0  0  0  0  0  0
    3.1974    5.1259    2.6845 C   0  0  0  0  0  0  0  0  0  0  0  0
    1.2381    4.2614    1.6957 O   0  0  0  0  0  0  0  0  0  0  0  0
    3.5763    1.1011   -0.0223 C   0  0  0  0  0  0  0  0  0  0  0  0
    3.0538    0.1429   -0.5813 O   0  0  0  0  0  0  0  0  0  0  0  0
    5.0134    1.0084    0.4483 C   0  0  0  0  0  0  0  0  0  0  0  0
    5.9739    1.7376   -0.2727 C   0  0  0  0  0  0  0  0  0  0  0  0
    7.3350    1.6250    0.0097 C   0  0  0  0  0  0  0  0  0  0  0  0
    7.7547    0.7792    1.0382 C   0  0  0  0  0  0  0  0  0  0  0  0
    6.8112    0.0525    1.7634 C   0  0  0  0  0  0  0  0  0  0  0  0
    5.4346    0.1387    1.4823 C   0  0  0  0  0  0  0  0  0  0  0  0
    4.4979   -0.7001    2.2923 C   0  0  0  0  0  0  0  0  0  0  0  0
    3.6900   -1.6762    1.6863 C   0  0  0  0  0  0  0  0  0  0  0  0
    2.8716   -2.5125    2.4488 C   0  0  0  0  0  0  0  0  0  0  0  0
    2.8351   -2.3948    3.8413 C   0  0  0  0  0  0  0  0  0  0  0  0
    3.6196   -1.4308    4.4693 C   0  0  0  0  0  0  0  0  0  0  0  0
    4.4487   -0.5850    3.7069 C   0  0  0  0  0  0  0  0  0  0  0  0
    5.2103    0.4178    4.4013 C   0  0  0  0  0  0  0  0  0  0  0  0
    5.7923    1.2315    4.9919 N   0  0  0  0  0  0  0  0  0  0  0  0
    1.3422    3.4362   -0.6950 H   0  0  0  0  0  0  0  0  0  0  0  0
    0.8390    1.8263   -0.0957 H   0  0  0  0  0  0  0  0  0  0  0  0
    1.7344    1.9337   -1.6139 H   0  0  0  0  0  0  0  0  0  0  0  0
    3.3999    4.3349    0.1469 H   0  0  0  0  0  0  0  0  0  0  0  0
    4.4219    3.2822    1.1437 H   0  0  0  0  0  0  0  0  0  0  0  0
    3.4972    2.4871    3.4918 H   0  0  0  0  0  0  0  0  0  0  0  0
    2.0626    1.8263    2.6705 H   0  0  0  0  0  0  0  0  0  0  0  0
    1.8728    3.0465    3.9620 H   0  0  0  0  0  0  0  0  0  0  0  0
    4.2353    4.9400    3.0000 H   0  0  0  0  0  0  0  0  0  0  0  0
    2.6163    5.4515    3.5598 H   0  0  0  0  0  0  0  0  0  0  0  0
    3.1919    5.9476    1.9516 H   0  0  0  0  0  0  0  0  0  0  0  0
    0.6835    3.4723    1.6595 H   0  0  0  0  0  0  0  0  0  0  0  0
    5.6411    2.4004   -1.0758 H   0  0  0  0  0  0  0  0  0  0  0  0
    8.0632    2.1955   -0.5719 H   0  0  0  0  0  0  0  0  0  0  0  0
    8.8165    0.6802    1.2760 H   0  0  0  0  0  0  0  0  0  0  0  0
    7.1464   -0.6144    2.5605 H   0  0  0  0  0  0  0  0  0  0  0  0
    3.7016   -1.7617    0.6003 H   0  0  0  0  0  0  0  0  0  0  0  0
    2.2587   -3.2651    1.9468 H   0  0  0  0  0  0  0  0  0  0  0  0
    2.1955   -3.0500    4.4371 H   0  0  0  0  0  0  0  0  0  0  0  0
    3.5980   -1.3154    5.5547 H   0  0  0  0  0  0  0  0  0  0  0  0
  1  2  1  0
  1 24  1  0
  1 25  1  0
  1 26  1  0
  2  3  1  0
  2  8  1  0
  3  4  1  0
  3 27  1  0
  3 28  1  0
  4  5  1  0
  4  6  1  0
  4  7  1  6
  5 29  1  0
  5 30  1  0
  5 31  1  0
  6 32  1  0
  6 33  1  0
  6 34  1  0
  7 35  1  0
  8  9  2  0
  8 10  1  0
 10 11  2  0
 10 15  1  0
 11 12  1  0
 11 36  1  0
 12 13  2  0
 12 37  1  0
 13 14  1  0
 13 38  1  0
 14 15  2  0
 14 39  1  0
 15 16  1  0
 16 17  2  0
 16 21  1  0
 17 18  1  0
 17 40  1  0
 18 19  2  0
 18 41  1  0
 19 20  1  0
 19 42  1  0
 20 21  2  0
 20 43  1  0
 21 22  1  0
 22 23  3  0
M  END

