
     RDKit          3D

 36 39  0  0  0  0  0  0  0  0999 V2000
    3.3972   -1.3623    4.8335 N   0  0  0  0  0  0  0  0  0  0  0  0
    4.0563   -1.1136    3.6230 C   0  0  0  0  0  0  0  0  0  0  0  0
    5.2148   -0.2890    3.6155 C   0  0  0  0  0  0  0  0  0  0  0  0
    5.8773    0.0367    2.4373 C   0  0  0  0  0  0  0  0  0  0  0  0
    5.3743   -0.4711    1.2323 C   0  0  0  0  0  0  0  0  0  0  0  0
    4.2123   -1.2943    1.2063 C   0  0  0  0  0  0  0  0  0  0  0  0
    3.9809   -1.6313   -0.1719 C   0  0  0  0  0  0  0  0  0  0  0  0
    4.9754   -1.0249   -0.9040 C   0  0  0  0  0  0  0  0  0  0  0  0
    5.8273   -0.3245   -0.0727 N   0  0  0  0  0  0  0  0  0  0  0  0
    6.9657    0.4591   -0.4982 C   0  0  0  0  0  0  0  0  0  0  0  0
    6.6906    1.9382   -0.7117 C   0  0  0  0  0  0  0  0  0  0  0  0
    5.4391    2.5007   -0.5530 C   0  0  0  0  0  0  0  0  0  0  0  0
    5.2208    3.8863   -0.7681 C   0  0  0  0  0  0  0  0  0  0  0  0
    6.2570    4.7117   -1.1443 C   0  0  0  0  0  0  0  0  0  0  0  0
    7.5625    4.1761   -1.3209 C   0  0  0  0  0  0  0  0  0  0  0  0
    8.6811    4.9603   -1.7085 C   0  0  0  0  0  0  0  0  0  0  0  0
    9.9128    4.3611   -1.8587 C   0  0  0  0  0  0  0  0  0  0  0  0
   10.0224    2.9672   -1.6187 C   0  0  0  0  0  0  0  0  0  0  0  0
    9.0119    2.2060   -1.2583 N   0  0  0  0  0  0  0  0  0  0  0  0
    7.7853    2.7759   -1.1032 C   0  0  0  0  0  0  0  0  0  0  0  0
    3.5614   -1.6135    2.4137 C   0  0  0  0  0  0  0  0  0  0  0  0
    3.9919   -1.3397    5.6553 H   0  0  0  0  0  0  0  0  0  0  0  0
    2.8035   -2.1852    4.8331 H   0  0  0  0  0  0  0  0  0  0  0  0
    5.5863    0.1053    4.5657 H   0  0  0  0  0  0  0  0  0  0  0  0
    6.7617    0.6771    2.4641 H   0  0  0  0  0  0  0  0  0  0  0  0
    3.1828   -2.2539   -0.5713 H   0  0  0  0  0  0  0  0  0  0  0  0
    5.1559   -1.0389   -1.9780 H   0  0  0  0  0  0  0  0  0  0  0  0
    7.3625    0.0276   -1.4304 H   0  0  0  0  0  0  0  0  0  0  0  0
    7.7817    0.3437    0.2325 H   0  0  0  0  0  0  0  0  0  0  0  0
    4.6013    1.8680   -0.2532 H   0  0  0  0  0  0  0  0  0  0  0  0
    4.2163    4.2942   -0.6302 H   0  0  0  0  0  0  0  0  0  0  0  0
    6.0925    5.7798   -1.3106 H   0  0  0  0  0  0  0  0  0  0  0  0
    8.5498    6.0322   -1.8832 H   0  0  0  0  0  0  0  0  0  0  0  0
   10.7936    4.9348   -2.1556 H   0  0  0  0  0  0  0  0  0  0  0  0
   10.9962    2.4741   -1.7337 H   0  0  0  0  0  0  0  0  0  0  0  0
    2.6695   -2.2472    2.4076 H   0  0  0  0  0  0  0  0  0  0  0  0
  1  2  1  0
  1 22  1  0
  1 23  1  0
  2  3  2  0
  2 21  1  0
  3  4  1  0
  3 24  1  0
  4  5  2  0
  4 25  1  0
  5  6  1  0
  5  9  1  0
  6  7  1  0
  6 21  2  0
  7  8  2  0
  7 26  1  0
  8  9  1  0
  8 27  1  0
  9 10  1  0
 10 11  1  0
 10 28  1  0
 10 29  1  0
 11 12  2  0
 11 20  1  0
 12 13  1  0
 12 30  1  0
 13 14  2  0
 13 31  1  0
 14 15  1  0
 14 32  1  0
 15 16  1  0
 15 20  2  0
 16 17  2  0
 16 33  1  0
 17 18  1  0
 17 34  1  0
 18 19  2  0
 18 35  1  0
 19 20  1  0
 21 36  1  0
M  END

