
     RDKit          3D

 60 63  0  0  0  0  0  0  0  0999 V2000
    1.1577   -0.1293    0.9346 C   0  0  0  0  0  0  0  0  0  0  0  0
    2.5601    0.0091    0.3918 C   0  0  0  0  0  0  0  0  0  0  0  0
    3.3599   -1.1875    0.2994 C   0  0  0  0  0  0  0  0  0  0  0  0
    2.7026   -2.3282    0.6165 O   0  0  0  0  0  0  0  0  0  0  0  0
    3.3855   -3.5719    0.5688 C   0  0  0  0  0  0  0  0  0  0  0  0
    2.3795   -4.6591    0.9613 C   0  0  1  0  0  0  0  0  0  0  0  0
    1.2831   -4.8648   -0.0877 C   0  0  0  0  0  0  0  0  0  0  0  0
    1.8001   -5.4960   -1.2436 O   0  0  0  0  0  0  0  0  0  0  0  0
    2.3619   -6.7556   -0.9241 C   0  0  0  0  0  0  0  0  0  0  0  0
    3.4895   -6.5904    0.0854 C   0  0  0  0  0  0  0  0  0  0  0  0
    3.0457   -5.8852    1.2366 O   0  0  0  0  0  0  0  0  0  0  0  0
    4.6791   -1.1522   -0.0754 C   0  0  0  0  0  0  0  0  0  0  0  0
    5.3413    0.0900   -0.3791 C   0  0  0  0  0  0  0  0  0  0  0  0
    6.5219    0.1982   -0.6938 O   0  0  0  0  0  0  0  0  0  0  0  0
    4.5143    1.2412   -0.2887 N   0  0  0  0  0  0  0  0  0  0  0  0
    3.1638    1.2052    0.0310 C   0  0  0  0  0  0  0  0  0  0  0  0
    2.4545    2.5130   -0.0251 C   0  0  0  0  0  0  0  0  0  0  0  0
    1.0991    2.6296   -0.3799 C   0  0  0  0  0  0  0  0  0  0  0  0
    0.4611    3.8707   -0.3933 C   0  0  0  0  0  0  0  0  0  0  0  0
    1.1505    5.0463   -0.0636 C   0  0  0  0  0  0  0  0  0  0  0  0
    0.4712    6.3994   -0.0776 C   0  0  0  0  0  0  0  0  0  0  0  0
    0.8608    7.3015   -1.2682 C   0  0  0  0  0  0  0  0  0  0  0  0
    0.4605    6.7995   -2.6683 C   0  0  1  0  0  0  0  0  0  0  0  0
   -1.0612    6.7296   -2.8554 C   0  0  0  0  0  0  0  0  0  0  0  0
    1.0986    7.6786   -3.7521 C   0  0  0  0  0  0  0  0  0  0  0  0
    2.5163    4.9326    0.2423 C   0  0  0  0  0  0  0  0  0  0  0  0
    3.1723    3.7009    0.2505 C   0  0  0  0  0  0  0  0  0  0  0  0
    4.6585    3.5719    0.4595 C   0  0  0  0  0  0  0  0  0  0  0  0
    5.1852    2.5271   -0.5154 C   0  0  0  0  0  0  0  0  0  0  0  0
    1.1409   -0.9066    1.7113 H   0  0  0  0  0  0  0  0  0  0  0  0
    0.4297   -0.4449    0.1663 H   0  0  0  0  0  0  0  0  0  0  0  0
    0.7949    0.8059    1.3784 H   0  0  0  0  0  0  0  0  0  0  0  0
    4.2279   -3.5835    1.2820 H   0  0  0  0  0  0  0  0  0  0  0  0
    3.7792   -3.7445   -0.4469 H   0  0  0  0  0  0  0  0  0  0  0  0
    1.9128   -4.3512    1.9112 H   0  0  0  0  0  0  0  0  0  0  0  0
    0.8643   -3.8966   -0.3978 H   0  0  0  0  0  0  0  0  0  0  0  0
    0.4713   -5.4777    0.3538 H   0  0  0  0  0  0  0  0  0  0  0  0
    2.7359   -7.1983   -1.8605 H   0  0  0  0  0  0  0  0  0  0  0  0
    1.5823   -7.4262   -0.5067 H   0  0  0  0  0  0  0  0  0  0  0  0
    4.3436   -6.0729   -0.3939 H   0  0  0  0  0  0  0  0  0  0  0  0
    3.8472   -7.5706    0.4380 H   0  0  0  0  0  0  0  0  0  0  0  0
    5.3010   -2.0412   -0.1500 H   0  0  0  0  0  0  0  0  0  0  0  0
    0.5355    1.7475   -0.6800 H   0  0  0  0  0  0  0  0  0  0  0  0
   -0.5950    3.9237   -0.6715 H   0  0  0  0  0  0  0  0  0  0  0  0
    0.7293    6.9352    0.8519 H   0  0  0  0  0  0  0  0  0  0  0  0
   -0.6211    6.2590   -0.0537 H   0  0  0  0  0  0  0  0  0  0  0  0
    1.9545    7.4535   -1.2476 H   0  0  0  0  0  0  0  0  0  0  0  0
    0.4151    8.3007   -1.1078 H   0  0  0  0  0  0  0  0  0  0  0  0
    0.8640    5.7769   -2.7877 H   0  0  0  0  0  0  0  0  0  0  0  0
   -1.5197    7.7268   -2.7357 H   0  0  0  0  0  0  0  0  0  0  0  0
   -1.5428    6.0536   -2.1317 H   0  0  0  0  0  0  0  0  0  0  0  0
   -1.3190    6.3655   -3.8631 H   0  0  0  0  0  0  0  0  0  0  0  0
    0.7428    8.7210   -3.6775 H   0  0  0  0  0  0  0  0  0  0  0  0
    0.8491    7.3150   -4.7621 H   0  0  0  0  0  0  0  0  0  0  0  0
    2.1971    7.6953   -3.6638 H   0  0  0  0  0  0  0  0  0  0  0  0
    3.0927    5.8350    0.4706 H   0  0  0  0  0  0  0  0  0  0  0  0
    4.8913    3.2583    1.4938 H   0  0  0  0  0  0  0  0  0  0  0  0
    5.1630    4.5357    0.2919 H   0  0  0  0  0  0  0  0  0  0  0  0
    6.2579    2.3329   -0.3990 H   0  0  0  0  0  0  0  0  0  0  0  0
    5.0206    2.8586   -1.5566 H   0  0  0  0  0  0  0  0  0  0  0  0
  1  2  1  0
  1 30  1  0
  1 31  1  0
  1 32  1  0
  2  3  1  0
  2 16  2  0
  3  4  1  0
  3 12  2  0
  4  5  1  0
  5  6  1  0
  5 33  1  0
  5 34  1  0
  6  7  1  0
  6 11  1  0
  6 35  1  1
  7  8  1  0
  7 36  1  0
  7 37  1  0
  8  9  1  0
  9 10  1  0
  9 38  1  0
  9 39  1  0
 10 11  1  0
 10 40  1  0
 10 41  1  0
 12 13  1  0
 12 42  1  0
 13 14  2  0
 13 15  1  0
 15 16  1  0
 15 29  1  0
 16 17  1  0
 17 18  2  0
 17 27  1  0
 18 19  1  0
 18 43  1  0
 19 20  2  0
 19 44  1  0
 20 21  1  0
 20 26  1  0
 21 22  1  0
 21 45  1  0
 21 46  1  0
 22 23  1  0
 22 47  1  0
 22 48  1  0
 23 24  1  0
 23 25  1  0
 23 49  1  6
 24 50  1  0
 24 51  1  0
 24 52  1  0
 25 53  1  0
 25 54  1  0
 25 55  1  0
 26 27  2  0
 26 56  1  0
 27 28  1  0
 28 29  1  0
 28 57  1  0
 28 58  1  0
 29 59  1  0
 29 60  1  0
M  END

