
     RDKit          3D

 22 22  0  0  0  0  0  0  0  0999 V2000
    1.2621    0.0222    0.3194 N   0  0  0  0  0  0  0  0  0  0  0  0
    2.6091    0.1265    0.0943 C   0  0  0  0  0  0  0  0  0  0  0  0
    3.2451    1.3881   -0.0015 C   0  0  0  0  0  0  0  0  0  0  0  0
    4.6253    1.4261   -0.1982 C   0  0  0  0  0  0  0  0  0  0  0  0
    5.3932    2.7066   -0.3153 C   0  0  0  0  0  0  0  0  0  0  0  0
    6.4995    2.7937   -0.8353 O   0  0  0  0  0  0  0  0  0  0  0  0
    4.7862    3.8157    0.2047 N   0  0  0  0  0  0  0  0  0  0  0  0
    5.4695    5.0040    0.1316 N   0  0  0  0  0  0  0  0  0  0  0  0
    4.9773    6.1269    0.6828 C   0  0  0  0  0  0  0  0  0  0  0  0
    3.5255    6.1912    1.4950 S   0  0  0  0  0  0  0  0  0  0  0  0
    5.9566    7.5968    0.5236 S   0  0  0  0  0  0  0  0  0  0  0  0
    5.3348    0.2199   -0.3091 C   0  0  0  0  0  0  0  0  0  0  0  0
    4.6107   -0.9662   -0.1997 C   0  0  0  0  0  0  0  0  0  0  0  0
    3.2924   -1.0230   -0.0052 N   0  0  0  0  0  0  0  0  0  0  0  0
    0.6602    0.8196    0.1682 H   0  0  0  0  0  0  0  0  0  0  0  0
    0.8568   -0.8988    0.2055 H   0  0  0  0  0  0  0  0  0  0  0  0
    2.6471    2.3012    0.0481 H   0  0  0  0  0  0  0  0  0  0  0  0
    3.9553    3.8627    0.7972 H   0  0  0  0  0  0  0  0  0  0  0  0
    6.3691    4.8929   -0.3375 H   0  0  0  0  0  0  0  0  0  0  0  0
    6.9800    7.0830   -0.2097 H   0  0  0  0  0  0  0  0  0  0  0  0
    6.4115    0.2291   -0.4783 H   0  0  0  0  0  0  0  0  0  0  0  0
    5.1263   -1.9308   -0.2788 H   0  0  0  0  0  0  0  0  0  0  0  0
  1  2  1  0
  1 15  1  0
  1 16  1  0
  2  3  2  0
  2 14  1  0
  3  4  1  0
  3 17  1  0
  4  5  1  0
  4 12  2  0
  5  6  2  0
  5  7  1  0
  7  8  1  0
  7 18  1  0
  8  9  1  0
  8 19  1  0
  9 10  2  0
  9 11  1  0
 11 20  1  0
 12 13  1  0
 12 21  1  0
 13 14  2  0
 13 22  1  0
M  END

