
     RDKit          3D

 29 30  0  0  0  0  0  0  0  0999 V2000
    3.1087    0.3470    1.1863 C   0  0  0  0  0  0  0  0  0  0  0  0
    2.5933    0.1042   -0.2347 C   0  0  0  0  0  0  0  0  0  0  0  0
    2.8389    1.2652   -1.2102 C   0  0  0  0  0  0  0  0  0  0  0  0
    4.2992    1.4967   -1.5198 C   0  0  1  0  0  0  0  0  0  0  0  0
    4.8434    0.6264   -1.9175 H   0  0  0  0  0  0  0  0  0  0  0  0
    4.6592    2.7213   -2.1362 O   0  0  0  0  0  0  0  0  0  0  0  0
    5.1097    2.5154   -0.8099 C   0  0  2  0  0  0  0  0  0  0  0  0
    4.6332    3.1217   -0.0298 H   0  0  0  0  0  0  0  0  0  0  0  0
    6.5737    2.3000   -0.5446 C   0  0  0  0  0  0  0  0  0  0  0  0
    7.0548    2.4359    0.5521 O   0  0  0  0  0  0  0  0  0  0  0  0
    7.2222    1.9128   -1.6611 O   0  0  0  0  0  0  0  0  0  0  0  0
    8.5735    1.6059   -1.7685 C   0  0  0  0  0  0  0  0  0  0  0  0
    8.9930    1.3697   -3.0836 C   0  0  0  0  0  0  0  0  0  0  0  0
   10.3231    1.0376   -3.3369 C   0  0  0  0  0  0  0  0  0  0  0  0
   11.2368    0.9412   -2.2814 C   0  0  0  0  0  0  0  0  0  0  0  0
   10.8049    1.1802   -0.9751 C   0  0  0  0  0  0  0  0  0  0  0  0
    9.4736    1.5148   -0.6997 C   0  0  0  0  0  0  0  0  0  0  0  0
    2.8824   -0.5095    1.8409 H   0  0  0  0  0  0  0  0  0  0  0  0
    2.6389    1.2389    1.6340 H   0  0  0  0  0  0  0  0  0  0  0  0
    4.1993    0.5018    1.2129 H   0  0  0  0  0  0  0  0  0  0  0  0
    1.5090   -0.0961   -0.2009 H   0  0  0  0  0  0  0  0  0  0  0  0
    3.0519   -0.8147   -0.6436 H   0  0  0  0  0  0  0  0  0  0  0  0
    2.4038    2.2008   -0.8192 H   0  0  0  0  0  0  0  0  0  0  0  0
    2.3251    1.0580   -2.1655 H   0  0  0  0  0  0  0  0  0  0  0  0
    8.2605    1.4542   -3.8887 H   0  0  0  0  0  0  0  0  0  0  0  0
   10.6467    0.8546   -4.3646 H   0  0  0  0  0  0  0  0  0  0  0  0
   12.2798    0.6819   -2.4778 H   0  0  0  0  0  0  0  0  0  0  0  0
   11.5120    1.1084   -0.1446 H   0  0  0  0  0  0  0  0  0  0  0  0
    9.1411    1.7054    0.3168 H   0  0  0  0  0  0  0  0  0  0  0  0
  1  2  1  0
  1 18  1  0
  1 19  1  0
  1 20  1  0
  2  3  1  0
  2 21  1  0
  2 22  1  0
  3  4  1  0
  3 23  1  0
  3 24  1  0
  4  5  1  6
  4  6  1  0
  4  7  1  0
  6  7  1  0
  7  8  1  1
  7  9  1  0
  9 10  2  0
  9 11  1  0
 11 12  1  0
 12 13  2  0
 12 17  1  0
 13 14  1  0
 13 25  1  0
 14 15  2  0
 14 26  1  0
 15 16  1  0
 15 27  1  0
 16 17  2  0
 16 28  1  0
 17 29  1  0
M  END

