
     RDKit          3D

 35 35  0  0  0  0  0  0  0  0999 V2000
    2.0216   -2.2414   -0.9987 C   0  0  0  0  0  0  0  0  0  0  0  0
    2.9186   -1.1418   -0.5493 C   0  0  0  0  0  0  0  0  0  0  0  0
    4.0118   -0.5312   -1.0985 C   0  0  0  0  0  0  0  0  0  0  0  0
    4.4557    0.4709   -0.1595 C   0  0  0  0  0  0  0  0  0  0  0  0
    5.6585    1.3925   -0.2838 C   0  0  1  0  0  0  0  0  0  0  0  0
    6.4419    1.1498   -1.5868 C   0  0  0  0  0  0  0  0  0  0  0  0
    5.3215    2.8116   -0.0225 N   0  0  0  0  0  0  0  0  0  0  0  0
    6.4487    3.5660    0.5041 C   0  0  0  0  0  0  0  0  0  0  0  0
    4.6521    3.5468   -1.0916 C   0  0  0  0  0  0  0  0  0  0  0  0
    3.2348    3.0749   -1.4131 C   0  0  0  0  0  0  0  0  0  0  0  0
    2.5050    4.0377   -2.3385 C   0  0  0  0  0  0  0  0  0  0  0  0
    2.9138    5.1166   -2.6711 O   0  0  0  0  0  0  0  0  0  0  0  0
    1.3002    3.5999   -2.7797 O   0  0  0  0  0  0  0  0  0  0  0  0
    3.5905    0.3869    0.9040 C   0  0  0  0  0  0  0  0  0  0  0  0
    3.4903    1.1080    2.2020 C   0  0  0  0  0  0  0  0  0  0  0  0
    2.6590   -0.5846    0.6661 O   0  0  0  0  0  0  0  0  0  0  0  0
    2.3264   -2.5956   -1.9933 H   0  0  0  0  0  0  0  0  0  0  0  0
    0.9704   -1.9110   -1.0566 H   0  0  0  0  0  0  0  0  0  0  0  0
    2.0538   -3.0979   -0.3037 H   0  0  0  0  0  0  0  0  0  0  0  0
    4.4538   -0.7739   -2.0621 H   0  0  0  0  0  0  0  0  0  0  0  0
    6.3401    1.1228    0.5414 H   0  0  0  0  0  0  0  0  0  0  0  0
    5.8246    1.3129   -2.4838 H   0  0  0  0  0  0  0  0  0  0  0  0
    6.8149    0.1150   -1.6250 H   0  0  0  0  0  0  0  0  0  0  0  0
    7.3130    1.8193   -1.6519 H   0  0  0  0  0  0  0  0  0  0  0  0
    6.8780    3.0463    1.3754 H   0  0  0  0  0  0  0  0  0  0  0  0
    6.1086    4.5584    0.8393 H   0  0  0  0  0  0  0  0  0  0  0  0
    7.2713    3.7319   -0.2272 H   0  0  0  0  0  0  0  0  0  0  0  0
    5.2437    3.5718   -2.0318 H   0  0  0  0  0  0  0  0  0  0  0  0
    4.5788    4.5981   -0.7756 H   0  0  0  0  0  0  0  0  0  0  0  0
    2.6509    2.9831   -0.4803 H   0  0  0  0  0  0  0  0  0  0  0  0
    3.2251    2.0717   -1.8689 H   0  0  0  0  0  0  0  0  0  0  0  0
    1.1161    2.7169   -2.4283 H   0  0  0  0  0  0  0  0  0  0  0  0
    4.1073    2.0148    2.1620 H   0  0  0  0  0  0  0  0  0  0  0  0
    3.8244    0.4812    3.0479 H   0  0  0  0  0  0  0  0  0  0  0  0
    2.4481    1.4026    2.4088 H   0  0  0  0  0  0  0  0  0  0  0  0
  1  2  1  0
  1 17  1  0
  1 18  1  0
  1 19  1  0
  2  3  2  0
  2 16  1  0
  3  4  1  0
  3 20  1  0
  4  5  1  0
  4 14  2  0
  5  6  1  0
  5  7  1  0
  5 21  1  1
  6 22  1  0
  6 23  1  0
  6 24  1  0
  7  8  1  0
  7  9  1  0
  8 25  1  0
  8 26  1  0
  8 27  1  0
  9 10  1  0
  9 28  1  0
  9 29  1  0
 10 11  1  0
 10 30  1  0
 10 31  1  0
 11 12  2  0
 11 13  1  0
 13 32  1  0
 14 15  1  0
 14 16  1  0
 15 33  1  0
 15 34  1  0
 15 35  1  0
M  END

