
     RDKit          3D

 42 44  0  0  0  0  0  0  0  0999 V2000
    1.0996   -0.1099    0.2767 C   0  0  0  0  0  0  0  0  0  0  0  0
    2.5769   -0.4534    0.0511 C   0  0  1  0  0  0  0  0  0  0  0  0
    2.7662   -1.7726   -0.7292 C   0  0  0  0  0  0  0  0  0  0  0  0
    2.4450   -1.6764   -2.1533 N   0  0  0  0  0  0  0  0  0  0  0  0
    3.1135   -0.5708   -2.8532 C   0  0  2  0  0  0  0  0  0  0  0  0
    4.5415   -0.9429   -3.2735 C   0  0  0  0  0  0  0  0  0  0  0  0
    4.9754   -2.2775   -3.2451 C   0  0  0  0  0  0  0  0  0  0  0  0
    6.2563   -2.6288   -3.6819 C   0  0  0  0  0  0  0  0  0  0  0  0
    7.1294   -1.6529   -4.1685 C   0  0  0  0  0  0  0  0  0  0  0  0
    6.7043   -0.3224   -4.2216 C   0  0  0  0  0  0  0  0  0  0  0  0
    5.4252    0.0260   -3.7794 C   0  0  0  0  0  0  0  0  0  0  0  0
    2.9828    0.7503   -2.0426 C   0  0  0  0  0  0  0  0  0  0  0  0
    3.3005    0.6418   -0.6234 N   0  0  0  0  0  0  0  0  0  0  0  0
    4.7040    0.7499   -0.2521 C   0  0  0  0  0  0  0  0  0  0  0  0
    4.9309    1.4803    1.0665 C   0  0  0  0  0  0  0  0  0  0  0  0
    3.9553    2.3369    1.5984 C   0  0  0  0  0  0  0  0  0  0  0  0
    4.1597    3.0350    2.7902 C   0  0  0  0  0  0  0  0  0  0  0  0
    5.3635    2.8907    3.4849 C   0  0  0  0  0  0  0  0  0  0  0  0
    6.3577    2.0523    2.9774 C   0  0  0  0  0  0  0  0  0  0  0  0
    6.1356    1.3622    1.7821 C   0  0  0  0  0  0  0  0  0  0  0  0
    7.4305    0.3387    1.1722 Cl  0  0  0  0  0  0  0  0  0  0  0  0
    0.6092   -0.8967    0.8722 H   0  0  0  0  0  0  0  0  0  0  0  0
    0.5414   -0.0193   -0.6691 H   0  0  0  0  0  0  0  0  0  0  0  0
    0.9986    0.8435    0.8160 H   0  0  0  0  0  0  0  0  0  0  0  0
    3.0382   -0.5746    1.0452 H   0  0  0  0  0  0  0  0  0  0  0  0
    2.1567   -2.5783   -0.2868 H   0  0  0  0  0  0  0  0  0  0  0  0
    3.8180   -2.0920   -0.6360 H   0  0  0  0  0  0  0  0  0  0  0  0
    1.4391   -1.6139   -2.2913 H   0  0  0  0  0  0  0  0  0  0  0  0
    2.5526   -0.4167   -3.7936 H   0  0  0  0  0  0  0  0  0  0  0  0
    4.2816   -3.0400   -2.8879 H   0  0  0  0  0  0  0  0  0  0  0  0
    6.5711   -3.6754   -3.6452 H   0  0  0  0  0  0  0  0  0  0  0  0
    8.1312   -1.9263   -4.5096 H   0  0  0  0  0  0  0  0  0  0  0  0
    7.3713    0.4515   -4.6109 H   0  0  0  0  0  0  0  0  0  0  0  0
    5.1152    1.0718   -3.8460 H   0  0  0  0  0  0  0  0  0  0  0  0
    1.9323    1.0792   -2.1376 H   0  0  0  0  0  0  0  0  0  0  0  0
    3.5891    1.5576   -2.4789 H   0  0  0  0  0  0  0  0  0  0  0  0
    5.2354    1.3041   -1.0436 H   0  0  0  0  0  0  0  0  0  0  0  0
    5.2196   -0.2280   -0.2051 H   0  0  0  0  0  0  0  0  0  0  0  0
    3.0224    2.4377    1.0404 H   0  0  0  0  0  0  0  0  0  0  0  0
    3.3776    3.6937    3.1763 H   0  0  0  0  0  0  0  0  0  0  0  0
    5.5350    3.4294    4.4201 H   0  0  0  0  0  0  0  0  0  0  0  0
    7.3086    1.9260    3.4978 H   0  0  0  0  0  0  0  0  0  0  0  0
  1  2  1  0
  1 22  1  0
  1 23  1  0
  1 24  1  0
  2  3  1  0
  2 13  1  0
  2 25  1  1
  3  4  1  0
  3 26  1  0
  3 27  1  0
  4  5  1  0
  4 28  1  0
  5  6  1  0
  5 12  1  0
  5 29  1  6
  6  7  2  0
  6 11  1  0
  7  8  1  0
  7 30  1  0
  8  9  2  0
  8 31  1  0
  9 10  1  0
  9 32  1  0
 10 11  2  0
 10 33  1  0
 11 34  1  0
 12 13  1  0
 12 35  1  0
 12 36  1  0
 13 14  1  0
 14 15  1  0
 14 37  1  0
 14 38  1  0
 15 16  2  0
 15 20  1  0
 16 17  1  0
 16 39  1  0
 17 18  2  0
 17 40  1  0
 18 19  1  0
 18 41  1  0
 19 20  2  0
 19 42  1  0
 20 21  1  0
M  END

