
     RDKit          3D

 43 44  0  0  0  0  0  0  0  0999 V2000
    9.3506   -0.8979   -2.0474 C   0  0  0  0  0  0  0  0  0  0  0  0
    7.9738   -1.4575   -2.3147 C   0  0  0  0  0  0  0  0  0  0  0  0
    7.4729   -1.5771   -3.6179 C   0  0  0  0  0  0  0  0  0  0  0  0
    6.1960   -2.0980   -3.8527 C   0  0  0  0  0  0  0  0  0  0  0  0
    5.4298   -2.5025   -2.7699 C   0  0  0  0  0  0  0  0  0  0  0  0
    4.1872   -3.0007   -3.0028 F   0  0  0  0  0  0  0  0  0  0  0  0
    5.8762   -2.4100   -1.4460 C   0  0  0  0  0  0  0  0  0  0  0  0
    4.9962   -2.8626   -0.2864 C   0  0  1  0  0  0  0  0  0  0  0  0
    3.7297   -2.2249   -0.3044 O   0  0  0  0  0  0  0  0  0  0  0  0
    4.8256   -4.3938   -0.2131 C   0  0  0  0  0  0  0  0  0  0  0  0
    6.1045   -5.2246   -0.0048 C   0  0  1  0  0  0  0  0  0  0  0  0
    6.8192   -4.9730    1.3411 C   0  0  0  0  0  0  0  0  0  0  0  0
    6.0441   -5.5574    2.5297 C   0  0  0  0  0  0  0  0  0  0  0  0
    5.7223   -7.0377    2.3105 C   0  0  0  0  0  0  0  0  0  0  0  0
    5.0469   -7.2080    1.0185 N   0  0  0  0  0  0  0  0  0  0  0  0
    4.0515   -8.5604    0.8171 S   0  0  1  0  0  0  0  0  0  0  0  0
    2.3918   -7.8740    0.9409 C   0  0  0  0  0  0  0  0  0  0  0  0
    4.2140   -9.0478   -0.5556 O   0  0  0  0  0  0  0  0  0  0  0  0
    4.2349   -9.4486    1.9685 O   0  0  0  0  0  0  0  0  0  0  0  0
    5.8164   -6.7310   -0.1369 C   0  0  0  0  0  0  0  0  0  0  0  0
    7.1551   -1.8760   -1.2509 C   0  0  0  0  0  0  0  0  0  0  0  0
    9.8158   -0.5137   -2.9670 H   0  0  0  0  0  0  0  0  0  0  0  0
   10.0223   -1.6676   -1.6305 H   0  0  0  0  0  0  0  0  0  0  0  0
    9.3146   -0.0729   -1.3174 H   0  0  0  0  0  0  0  0  0  0  0  0
    8.0828   -1.2549   -4.4660 H   0  0  0  0  0  0  0  0  0  0  0  0
    5.7887   -2.1910   -4.8614 H   0  0  0  0  0  0  0  0  0  0  0  0
    5.4730   -2.5119    0.6423 H   0  0  0  0  0  0  0  0  0  0  0  0
    3.2851   -2.4854   -1.1232 H   0  0  0  0  0  0  0  0  0  0  0  0
    4.3430   -4.7242   -1.1493 H   0  0  0  0  0  0  0  0  0  0  0  0
    4.1008   -4.5893    0.5928 H   0  0  0  0  0  0  0  0  0  0  0  0
    6.8077   -4.9730   -0.8178 H   0  0  0  0  0  0  0  0  0  0  0  0
    7.0068   -3.8989    1.4982 H   0  0  0  0  0  0  0  0  0  0  0  0
    7.8143   -5.4510    1.2968 H   0  0  0  0  0  0  0  0  0  0  0  0
    5.1039   -5.0021    2.6864 H   0  0  0  0  0  0  0  0  0  0  0  0
    6.6314   -5.4522    3.4570 H   0  0  0  0  0  0  0  0  0  0  0  0
    5.0783   -7.4296    3.1083 H   0  0  0  0  0  0  0  0  0  0  0  0
    6.6568   -7.6343    2.3353 H   0  0  0  0  0  0  0  0  0  0  0  0
    2.2527   -7.1379    0.1393 H   0  0  0  0  0  0  0  0  0  0  0  0
    2.2692   -7.4141    1.9297 H   0  0  0  0  0  0  0  0  0  0  0  0
    1.6976   -8.7169    0.8191 H   0  0  0  0  0  0  0  0  0  0  0  0
    5.2520   -6.9476   -1.0525 H   0  0  0  0  0  0  0  0  0  0  0  0
    6.7748   -7.2832   -0.2105 H   0  0  0  0  0  0  0  0  0  0  0  0
    7.5248   -1.7761   -0.2254 H   0  0  0  0  0  0  0  0  0  0  0  0
  1  2  1  0
  1 22  1  0
  1 23  1  0
  1 24  1  0
  2  3  2  0
  2 21  1  0
  3  4  1  0
  3 25  1  0
  4  5  2  0
  4 26  1  0
  5  6  1  0
  5  7  1  0
  7  8  1  0
  7 21  2  0
  8  9  1  0
  8 10  1  0
  8 27  1  1
  9 28  1  0
 10 11  1  0
 10 29  1  0
 10 30  1  0
 11 12  1  0
 11 20  1  0
 11 31  1  6
 12 13  1  0
 12 32  1  0
 12 33  1  0
 13 14  1  0
 13 34  1  0
 13 35  1  0
 14 15  1  0
 14 36  1  0
 14 37  1  0
 15 16  1  0
 15 20  1  0
 16 17  1  6
 16 18  2  0
 16 19  2  0
 17 38  1  0
 17 39  1  0
 17 40  1  0
 20 41  1  0
 20 42  1  0
 21 43  1  0
M  END

