
     RDKit          3D

 64 67  0  0  0  0  0  0  0  0999 V2000
   -3.5885    6.6983    5.5940 C   0  0  0  0  0  0  0  0  0  0  0  0
   -2.8347    5.9724    4.4650 C   0  0  1  0  0  0  0  0  0  0  0  0
   -2.8511    4.4562    4.7697 C   0  0  0  0  0  0  0  0  0  0  0  0
   -3.5812    6.2382    3.1368 C   0  0  0  0  0  0  0  0  0  0  0  0
   -1.3759    6.4509    4.3349 C   0  0  0  0  0  0  0  0  0  0  0  0
   -0.8190    7.4394    5.1654 C   0  0  0  0  0  0  0  0  0  0  0  0
    0.5063    7.8523    5.0243 C   0  0  0  0  0  0  0  0  0  0  0  0
    1.3277    7.2856    4.0389 C   0  0  0  0  0  0  0  0  0  0  0  0
    2.7254    7.7094    3.8767 C   0  0  0  0  0  0  0  0  0  0  0  0
    3.2846    8.6446    4.6129 N   0  0  0  0  0  0  0  0  0  0  0  0
    4.5804    8.7185    4.1264 O   0  0  0  0  0  0  0  0  0  0  0  0
    4.6840    7.8194    3.1387 C   0  0  0  0  0  0  0  0  0  0  0  0
    6.0141    7.6497    2.4651 C   0  0  0  0  0  0  0  0  0  0  0  0
    6.8123    6.6317    3.1338 N   0  0  0  0  0  0  0  0  0  0  0  0
    6.4513    5.2496    2.8132 C   0  0  0  0  0  0  0  0  0  0  0  0
    7.0567    4.7643    1.4862 C   0  0  0  0  0  0  0  0  0  0  0  0
    8.5761    4.9727    1.4655 C   0  0  0  0  0  0  0  0  0  0  0  0
    8.9489    6.4299    1.8061 C   0  0  2  0  0  0  0  0  0  0  0  0
   10.4593    6.5774    1.9629 C   0  0  0  0  0  0  0  0  0  0  0  0
   11.0809    5.9298    2.7948 O   0  0  0  0  0  0  0  0  0  0  0  0
   11.0590    7.4928    1.1446 N   0  0  0  0  0  0  0  0  0  0  0  0
   12.4985    7.7265    1.1581 C   0  0  0  0  0  0  0  0  0  0  0  0
   13.2639    6.9317    0.1161 C   0  0  0  0  0  0  0  0  0  0  0  0
   13.8152    7.5547   -1.0118 C   0  0  0  0  0  0  0  0  0  0  0  0
   14.5071    6.8198   -1.9800 C   0  0  0  0  0  0  0  0  0  0  0  0
   14.6406    5.4455   -1.8067 C   0  0  0  0  0  0  0  0  0  0  0  0
   15.3022    4.7300   -2.7287 F   0  0  0  0  0  0  0  0  0  0  0  0
   14.1063    4.7937   -0.6953 C   0  0  0  0  0  0  0  0  0  0  0  0
   13.4211    5.5416    0.2625 C   0  0  0  0  0  0  0  0  0  0  0  0
    8.2518    6.8409    3.1318 C   0  0  0  0  0  0  0  0  0  0  0  0
    3.5781    7.1714    2.9328 N   0  0  0  0  0  0  0  0  0  0  0  0
    0.7879    6.2970    3.2008 C   0  0  0  0  0  0  0  0  0  0  0  0
   -0.5367    5.8932    3.3512 C   0  0  0  0  0  0  0  0  0  0  0  0
   -4.6233    6.3255    5.6499 H   0  0  0  0  0  0  0  0  0  0  0  0
   -3.6382    7.7851    5.4234 H   0  0  0  0  0  0  0  0  0  0  0  0
   -3.1225    6.5266    6.5769 H   0  0  0  0  0  0  0  0  0  0  0  0
   -3.8884    4.0945    4.8633 H   0  0  0  0  0  0  0  0  0  0  0  0
   -2.3277    4.2373    5.7140 H   0  0  0  0  0  0  0  0  0  0  0  0
   -2.3651    3.8711    3.9743 H   0  0  0  0  0  0  0  0  0  0  0  0
   -4.6276    5.8991    3.2099 H   0  0  0  0  0  0  0  0  0  0  0  0
   -3.1179    5.7081    2.2908 H   0  0  0  0  0  0  0  0  0  0  0  0
   -3.5878    7.3131    2.8955 H   0  0  0  0  0  0  0  0  0  0  0  0
   -1.4215    7.9062    5.9446 H   0  0  0  0  0  0  0  0  0  0  0  0
    0.9139    8.6217    5.6831 H   0  0  0  0  0  0  0  0  0  0  0  0
    6.5432    8.6115    2.5288 H   0  0  0  0  0  0  0  0  0  0  0  0
    5.8176    7.4485    1.3923 H   0  0  0  0  0  0  0  0  0  0  0  0
    5.3545    5.1615    2.8020 H   0  0  0  0  0  0  0  0  0  0  0  0
    6.8159    4.6069    3.6349 H   0  0  0  0  0  0  0  0  0  0  0  0
    6.5928    5.3065    0.6422 H   0  0  0  0  0  0  0  0  0  0  0  0
    6.8150    3.6988    1.3362 H   0  0  0  0  0  0  0  0  0  0  0  0
    8.9963    4.6923    0.4849 H   0  0  0  0  0  0  0  0  0  0  0  0
    9.0577    4.3205    2.2140 H   0  0  0  0  0  0  0  0  0  0  0  0
    8.5920    7.0936    0.9970 H   0  0  0  0  0  0  0  0  0  0  0  0
   10.5126    7.9047    0.3977 H   0  0  0  0  0  0  0  0  0  0  0  0
   12.8415    7.4535    2.1663 H   0  0  0  0  0  0  0  0  0  0  0  0
   12.6815    8.8035    1.0175 H   0  0  0  0  0  0  0  0  0  0  0  0
   13.7105    8.6363   -1.1394 H   0  0  0  0  0  0  0  0  0  0  0  0
   14.9431    7.2954   -2.8607 H   0  0  0  0  0  0  0  0  0  0  0  0
   14.2395    3.7148   -0.5927 H   0  0  0  0  0  0  0  0  0  0  0  0
   13.0002    5.0486    1.1425 H   0  0  0  0  0  0  0  0  0  0  0  0
    8.4658    7.8960    3.3669 H   0  0  0  0  0  0  0  0  0  0  0  0
    8.6993    6.2367    3.9391 H   0  0  0  0  0  0  0  0  0  0  0  0
    1.4202    5.8513    2.4310 H   0  0  0  0  0  0  0  0  0  0  0  0
   -0.9224    5.1216    2.6810 H   0  0  0  0  0  0  0  0  0  0  0  0
  2  1  1  1
  1 34  1  0
  1 35  1  0
  1 36  1  0
  2  3  1  0
  2  4  1  0
  2  5  1  0
  3 37  1  0
  3 38  1  0
  3 39  1  0
  4 40  1  0
  4 41  1  0
  4 42  1  0
  5  6  2  0
  5 33  1  0
  6  7  1  0
  6 43  1  0
  7  8  2  0
  7 44  1  0
  8  9  1  0
  8 32  1  0
  9 10  2  0
  9 31  1  0
 10 11  1  0
 11 12  1  0
 12 13  1  0
 12 31  2  0
 13 14  1  0
 13 45  1  0
 13 46  1  0
 14 15  1  0
 14 30  1  0
 15 16  1  0
 15 47  1  0
 15 48  1  0
 16 17  1  0
 16 49  1  0
 16 50  1  0
 17 18  1  0
 17 51  1  0
 17 52  1  0
 18 19  1  0
 18 30  1  0
 18 53  1  6
 19 20  2  0
 19 21  1  0
 21 22  1  0
 21 54  1  0
 22 23  1  0
 22 55  1  0
 22 56  1  0
 23 24  2  0
 23 29  1  0
 24 25  1  0
 24 57  1  0
 25 26  2  0
 25 58  1  0
 26 27  1  0
 26 28  1  0
 28 29  2  0
 28 59  1  0
 29 60  1  0
 30 61  1  0
 30 62  1  0
 32 33  2  0
 32 63  1  0
 33 64  1  0
M  END

