
     RDKit          3D

 39 40  0  0  0  0  0  0  0  0999 V2000
    2.1137   -1.6502    2.2796 C   0  0  0  0  0  0  0  0  0  0  0  0
    2.3730   -1.6356    0.7737 C   0  0  0  0  0  0  0  0  0  0  0  0
    3.5256   -0.7232    0.3442 C   0  0  0  0  0  0  0  0  0  0  0  0
    4.8172   -1.1430    0.8733 N   0  0  0  0  0  0  0  0  0  0  0  0
    5.6191   -0.4807    1.7521 C   0  0  0  0  0  0  0  0  0  0  0  0
    6.7431   -1.2742    1.9639 C   0  0  0  0  0  0  0  0  0  0  0  0
    7.9213   -1.0218    2.8832 C   0  0  1  0  0  0  0  0  0  0  0  0
    8.4104    0.4467    2.8056 C   0  0  0  0  0  0  0  0  0  0  0  0
    9.7963    0.6815    3.3652 C   0  0  0  0  0  0  0  0  0  0  0  0
   10.8767    0.9257    2.5031 C   0  0  0  0  0  0  0  0  0  0  0  0
   12.1712    1.1325    2.9892 C   0  0  0  0  0  0  0  0  0  0  0  0
   12.3927    1.0941    4.3666 C   0  0  0  0  0  0  0  0  0  0  0  0
   14.1543    1.3791    5.0498 Br  0  0  0  0  0  0  0  0  0  0  0  0
   11.3382    0.8525    5.2513 C   0  0  0  0  0  0  0  0  0  0  0  0
   10.0522    0.6483    4.7467 C   0  0  0  0  0  0  0  0  0  0  0  0
    7.6742   -1.3851    4.2842 N   0  0  0  0  0  0  0  0  0  0  0  0
    7.5975   -2.8095    4.5600 C   0  0  0  0  0  0  0  0  0  0  0  0
    6.4977   -2.4079    1.1455 C   0  0  0  0  0  0  0  0  0  0  0  0
    5.3400   -2.3167    0.4954 N   0  0  0  0  0  0  0  0  0  0  0  0
    1.2726   -2.3156    2.5291 H   0  0  0  0  0  0  0  0  0  0  0  0
    1.8648   -0.6439    2.6580 H   0  0  0  0  0  0  0  0  0  0  0  0
    2.9950   -2.0092    2.8348 H   0  0  0  0  0  0  0  0  0  0  0  0
    1.4687   -1.3020    0.2356 H   0  0  0  0  0  0  0  0  0  0  0  0
    2.5949   -2.6540    0.4160 H   0  0  0  0  0  0  0  0  0  0  0  0
    3.3573    0.3096    0.6876 H   0  0  0  0  0  0  0  0  0  0  0  0
    3.5997   -0.7018   -0.7549 H   0  0  0  0  0  0  0  0  0  0  0  0
    5.3389    0.4955    2.1438 H   0  0  0  0  0  0  0  0  0  0  0  0
    8.7493   -1.6647    2.5383 H   0  0  0  0  0  0  0  0  0  0  0  0
    7.6788    1.0817    3.3376 H   0  0  0  0  0  0  0  0  0  0  0  0
    8.3888    0.7639    1.7522 H   0  0  0  0  0  0  0  0  0  0  0  0
   10.7073    0.9604    1.4228 H   0  0  0  0  0  0  0  0  0  0  0  0
   12.9977    1.3238    2.3027 H   0  0  0  0  0  0  0  0  0  0  0  0
   11.5208    0.8246    6.3270 H   0  0  0  0  0  0  0  0  0  0  0  0
    9.2317    0.4383    5.4340 H   0  0  0  0  0  0  0  0  0  0  0  0
    6.8189   -0.9255    4.5977 H   0  0  0  0  0  0  0  0  0  0  0  0
    8.5735   -3.2806    4.3551 H   0  0  0  0  0  0  0  0  0  0  0  0
    6.8321   -3.3581    3.9708 H   0  0  0  0  0  0  0  0  0  0  0  0
    7.3783   -2.9662    5.6278 H   0  0  0  0  0  0  0  0  0  0  0  0
    7.1363   -3.2806    1.0020 H   0  0  0  0  0  0  0  0  0  0  0  0
  1  2  1  0
  1 20  1  0
  1 21  1  0
  1 22  1  0
  2  3  1  0
  2 23  1  0
  2 24  1  0
  3  4  1  0
  3 25  1  0
  3 26  1  0
  4  5  1  0
  4 19  1  0
  5  6  2  0
  5 27  1  0
  6  7  1  0
  6 18  1  0
  7  8  1  0
  7 16  1  0
  7 28  1  6
  8  9  1  0
  8 29  1  0
  8 30  1  0
  9 10  2  0
  9 15  1  0
 10 11  1  0
 10 31  1  0
 11 12  2  0
 11 32  1  0
 12 13  1  0
 12 14  1  0
 14 15  2  0
 14 33  1  0
 15 34  1  0
 16 17  1  0
 16 35  1  0
 17 36  1  0
 17 37  1  0
 17 38  1  0
 18 19  2  0
 18 39  1  0
M  END

