
     RDKit          3D

 42 43  0  0  0  0  0  0  0  0999 V2000
    4.3916   -0.6677   -3.2797 C   0  0  0  0  0  0  0  0  0  0  0  0
    4.3513   -1.1193   -1.8190 C   0  0  0  0  0  0  0  0  0  0  0  0
    5.5401   -0.6134   -0.9967 C   0  0  0  0  0  0  0  0  0  0  0  0
    5.5291   -1.0424    0.4846 C   0  0  0  0  0  0  0  0  0  0  0  0
    5.6874   -2.5317    0.7110 C   0  0  0  0  0  0  0  0  0  0  0  0
    6.9391   -3.1517    0.5708 C   0  0  0  0  0  0  0  0  0  0  0  0
    7.0914   -4.5270    0.7604 C   0  0  0  0  0  0  0  0  0  0  0  0
    5.9998   -5.3395    1.1001 C   0  0  0  0  0  0  0  0  0  0  0  0
    6.1718   -6.8451    1.3011 C   0  0  1  0  0  0  0  0  0  0  0  0
    5.5640   -7.3850    2.5180 N   0  0  0  0  0  0  0  0  0  0  0  0
    5.6438   -7.6710    0.0995 C   0  0  0  0  0  0  0  0  0  0  0  0
    6.3630   -7.4319   -1.2075 C   0  0  0  0  0  0  0  0  0  0  0  0
    7.5667   -8.0980   -1.4915 C   0  0  0  0  0  0  0  0  0  0  0  0
    8.2599   -7.8778   -2.6834 C   0  0  0  0  0  0  0  0  0  0  0  0
    7.7431   -6.9752   -3.6168 C   0  0  0  0  0  0  0  0  0  0  0  0
    8.6001   -6.6936   -5.1179 Cl  0  0  0  0  0  0  0  0  0  0  0  0
    6.5467   -6.3000   -3.3647 C   0  0  0  0  0  0  0  0  0  0  0  0
    5.8695   -6.5325   -2.1651 C   0  0  0  0  0  0  0  0  0  0  0  0
    4.7493   -4.7203    1.2470 C   0  0  0  0  0  0  0  0  0  0  0  0
    4.5959   -3.3452    1.0549 C   0  0  0  0  0  0  0  0  0  0  0  0
    3.5222   -1.0425   -3.8434 H   0  0  0  0  0  0  0  0  0  0  0  0
    5.2997   -1.0345   -3.7873 H   0  0  0  0  0  0  0  0  0  0  0  0
    4.3915    0.4324   -3.3618 H   0  0  0  0  0  0  0  0  0  0  0  0
    4.3173   -2.2218   -1.7748 H   0  0  0  0  0  0  0  0  0  0  0  0
    3.4128   -0.7697   -1.3501 H   0  0  0  0  0  0  0  0  0  0  0  0
    5.5655    0.4906   -1.0393 H   0  0  0  0  0  0  0  0  0  0  0  0
    6.4807   -0.9557   -1.4656 H   0  0  0  0  0  0  0  0  0  0  0  0
    4.5902   -0.6996    0.9520 H   0  0  0  0  0  0  0  0  0  0  0  0
    6.3448   -0.5126    1.0058 H   0  0  0  0  0  0  0  0  0  0  0  0
    7.8145   -2.5464    0.3158 H   0  0  0  0  0  0  0  0  0  0  0  0
    8.0809   -4.9794    0.6461 H   0  0  0  0  0  0  0  0  0  0  0  0
    7.2564   -7.0395    1.3715 H   0  0  0  0  0  0  0  0  0  0  0  0
    4.5459   -7.3257    2.4684 H   0  0  0  0  0  0  0  0  0  0  0  0
    5.8410   -6.8287    3.3273 H   0  0  0  0  0  0  0  0  0  0  0  0
    4.5674   -7.4600   -0.0243 H   0  0  0  0  0  0  0  0  0  0  0  0
    5.7303   -8.7302    0.3890 H   0  0  0  0  0  0  0  0  0  0  0  0
    7.9707   -8.8125   -0.7681 H   0  0  0  0  0  0  0  0  0  0  0  0
    9.1918   -8.4047   -2.8953 H   0  0  0  0  0  0  0  0  0  0  0  0
    6.1518   -5.6003   -4.1032 H   0  0  0  0  0  0  0  0  0  0  0  0
    4.9348   -5.9998   -1.9718 H   0  0  0  0  0  0  0  0  0  0  0  0
    3.8755   -5.3163    1.5277 H   0  0  0  0  0  0  0  0  0  0  0  0
    3.6084   -2.8918    1.1822 H   0  0  0  0  0  0  0  0  0  0  0  0
  1  2  1  0
  1 21  1  0
  1 22  1  0
  1 23  1  0
  2  3  1  0
  2 24  1  0
  2 25  1  0
  3  4  1  0
  3 26  1  0
  3 27  1  0
  4  5  1  0
  4 28  1  0
  4 29  1  0
  5  6  2  0
  5 20  1  0
  6  7  1  0
  6 30  1  0
  7  8  2  0
  7 31  1  0
  8  9  1  0
  8 19  1  0
  9 10  1  0
  9 11  1  0
  9 32  1  1
 10 33  1  0
 10 34  1  0
 11 12  1  0
 11 35  1  0
 11 36  1  0
 12 13  2  0
 12 18  1  0
 13 14  1  0
 13 37  1  0
 14 15  2  0
 14 38  1  0
 15 16  1  0
 15 17  1  0
 17 18  2  0
 17 39  1  0
 18 40  1  0
 19 20  2  0
 19 41  1  0
 20 42  1  0
M  END

