
     RDKit          3D

 41 42  0  0  0  0  0  0  0  0999 V2000
    1.0202    0.0158    0.5899 C   0  0  0  0  0  0  0  0  0  0  0  0
    2.4618   -0.0961    0.0842 C   0  0  1  0  0  0  0  0  0  0  0  0
    2.7317   -1.3451   -0.7704 C   0  0  0  0  0  0  0  0  0  0  0  0
    4.2164   -1.5988   -1.0818 C   0  0  0  0  0  0  0  0  0  0  0  0
    4.9160   -0.5154   -1.9252 C   0  0  0  0  0  0  0  0  0  0  0  0
    5.4257    0.7344   -1.1841 C   0  0  0  0  0  0  0  0  0  0  0  0
    4.4200    1.4037   -0.2159 C   0  0  0  0  0  0  0  0  0  0  0  0
    3.0150    1.1305   -0.5427 N   0  0  0  0  0  0  0  0  0  0  0  0
    2.5016    1.8744   -1.5740 C   0  0  0  0  0  0  0  0  0  0  0  0
    3.1410    2.8099   -2.0507 O   0  0  0  0  0  0  0  0  0  0  0  0
    1.1337    1.5570   -2.2010 C   0  0  0  0  0  0  0  0  0  0  0  0
    0.0687    2.4421   -1.7452 N   0  0  0  0  0  0  0  0  0  0  0  0
    0.3088    3.8878   -1.7390 C   0  0  0  0  0  0  0  0  0  0  0  0
   -0.9651    4.6622   -2.0568 C   0  0  0  0  0  0  0  0  0  0  0  0
   -2.0830    4.2122   -1.1242 C   0  0  0  0  0  0  0  0  0  0  0  0
   -2.1831    2.7666   -1.1778 N   0  0  0  0  0  0  0  0  0  0  0  0
   -1.1760    1.8872   -1.5007 C   0  0  0  0  0  0  0  0  0  0  0  0
   -1.3922    0.6794   -1.5644 O   0  0  0  0  0  0  0  0  0  0  0  0
    0.8348   -0.8017    1.3048 H   0  0  0  0  0  0  0  0  0  0  0  0
    0.2531   -0.0574   -0.1918 H   0  0  0  0  0  0  0  0  0  0  0  0
    0.8768    0.9665    1.1269 H   0  0  0  0  0  0  0  0  0  0  0  0
    3.0774   -0.2083    0.9908 H   0  0  0  0  0  0  0  0  0  0  0  0
    2.1645   -1.2740   -1.7158 H   0  0  0  0  0  0  0  0  0  0  0  0
    2.3207   -2.2192   -0.2362 H   0  0  0  0  0  0  0  0  0  0  0  0
    4.2827   -2.5571   -1.6239 H   0  0  0  0  0  0  0  0  0  0  0  0
    4.7719   -1.7544   -0.1375 H   0  0  0  0  0  0  0  0  0  0  0  0
    4.2336   -0.2053   -2.7364 H   0  0  0  0  0  0  0  0  0  0  0  0
    5.7834   -0.9680   -2.4348 H   0  0  0  0  0  0  0  0  0  0  0  0
    5.7375    1.4699   -1.9418 H   0  0  0  0  0  0  0  0  0  0  0  0
    6.3321    0.4770   -0.6084 H   0  0  0  0  0  0  0  0  0  0  0  0
    4.5728    2.4905   -0.2231 H   0  0  0  0  0  0  0  0  0  0  0  0
    4.5853    1.0489    0.8114 H   0  0  0  0  0  0  0  0  0  0  0  0
    0.7921    0.5308   -2.0464 H   0  0  0  0  0  0  0  0  0  0  0  0
    1.3043    1.6976   -3.2841 H   0  0  0  0  0  0  0  0  0  0  0  0
    1.1018    4.1053   -2.4684 H   0  0  0  0  0  0  0  0  0  0  0  0
    0.7065    4.2083   -0.7568 H   0  0  0  0  0  0  0  0  0  0  0  0
   -1.2623    4.4793   -3.1032 H   0  0  0  0  0  0  0  0  0  0  0  0
   -0.7817    5.7422   -1.9452 H   0  0  0  0  0  0  0  0  0  0  0  0
   -3.0478    4.6518   -1.4264 H   0  0  0  0  0  0  0  0  0  0  0  0
   -1.8777    4.5685   -0.0944 H   0  0  0  0  0  0  0  0  0  0  0  0
   -3.0618    2.3075   -0.9730 H   0  0  0  0  0  0  0  0  0  0  0  0
  1  2  1  0
  1 19  1  0
  1 20  1  0
  1 21  1  0
  2  3  1  0
  2  8  1  0
  2 22  1  1
  3  4  1  0
  3 23  1  0
  3 24  1  0
  4  5  1  0
  4 25  1  0
  4 26  1  0
  5  6  1  0
  5 27  1  0
  5 28  1  0
  6  7  1  0
  6 29  1  0
  6 30  1  0
  7  8  1  0
  7 31  1  0
  7 32  1  0
  8  9  1  0
  9 10  2  0
  9 11  1  0
 11 12  1  0
 11 33  1  0
 11 34  1  0
 12 13  1  0
 12 17  1  0
 13 14  1  0
 13 35  1  0
 13 36  1  0
 14 15  1  0
 14 37  1  0
 14 38  1  0
 15 16  1  0
 15 39  1  0
 15 40  1  0
 16 17  1  0
 16 41  1  0
 17 18  2  0
M  END

