
     RDKit          3D

 51 55  0  0  0  0  0  0  0  0999 V2000
    1.9023   -5.6052    0.1060 O   0  0  0  0  0  0  0  0  0  0  0  0
    2.8990   -4.9071    0.2639 C   0  0  0  0  0  0  0  0  0  0  0  0
    4.1170   -5.4034    0.6329 N   0  0  0  0  0  0  0  0  0  0  0  0
    5.1626   -4.4160    0.7656 C   0  0  0  0  0  0  0  0  0  0  0  0
    4.4296   -3.1495    0.4174 C   0  0  0  0  0  0  0  0  0  0  0  0
    4.9364   -1.8588    0.3759 C   0  0  0  0  0  0  0  0  0  0  0  0
    6.6151   -1.5542    0.7558 Cl  0  0  0  0  0  0  0  0  0  0  0  0
    4.0756   -0.8124    0.0246 C   0  0  0  0  0  0  0  0  0  0  0  0
    2.7440   -1.0775   -0.2738 C   0  0  0  0  0  0  0  0  0  0  0  0
    2.1824   -2.3788   -0.2449 C   0  0  0  0  0  0  0  0  0  0  0  0
    0.7650   -2.5243   -0.5811 C   0  0  0  0  0  0  0  0  0  0  0  0
   -0.1427   -1.5266   -0.9421 C   0  0  0  0  0  0  0  0  0  0  0  0
   -1.4011   -2.1547   -1.1724 C   0  0  0  0  0  0  0  0  0  0  0  0
   -2.6792   -1.6893   -1.5533 C   0  0  0  0  0  0  0  0  0  0  0  0
   -3.7259   -2.5950   -1.6975 C   0  0  0  0  0  0  0  0  0  0  0  0
   -5.1235   -2.1306   -2.0660 C   0  0  0  0  0  0  0  0  0  0  0  0
   -5.1242   -0.9292   -2.8848 N   0  0  0  0  0  0  0  0  0  0  0  0
   -6.4393   -0.4617   -3.3248 C   0  0  1  0  0  0  0  0  0  0  0  0
   -7.2054    0.2385   -2.1828 C   0  0  0  0  0  0  0  0  0  0  0  0
   -6.5705    1.5790   -1.8074 C   0  0  0  0  0  0  0  0  0  0  0  0
   -6.4941    2.4358   -2.9873 N   0  0  0  0  0  0  0  0  0  0  0  0
   -5.6753    1.8613   -4.0484 C   0  0  0  0  0  0  0  0  0  0  0  0
   -6.2791    0.5264   -4.4943 C   0  0  0  0  0  0  0  0  0  0  0  0
   -3.4953   -3.9787   -1.4612 C   0  0  0  0  0  0  0  0  0  0  0  0
   -2.2544   -4.4704   -1.0794 C   0  0  0  0  0  0  0  0  0  0  0  0
   -1.2036   -3.5490   -0.9357 C   0  0  0  0  0  0  0  0  0  0  0  0
    0.1042   -3.7380   -0.5840 N   0  0  0  0  0  0  0  0  0  0  0  0
    0.5733   -4.6253   -0.3506 H   0  0  0  0  0  0  0  0  0  0  0  0
    3.0808   -3.4205    0.1156 C   0  0  0  0  0  0  0  0  0  0  0  0
    4.2403   -6.3953    0.7931 H   0  0  0  0  0  0  0  0  0  0  0  0
    6.0081   -4.5980    0.0770 H   0  0  0  0  0  0  0  0  0  0  0  0
    5.5801   -4.3751    1.7885 H   0  0  0  0  0  0  0  0  0  0  0  0
    4.4557    0.2100   -0.0133 H   0  0  0  0  0  0  0  0  0  0  0  0
    2.1060   -0.2360   -0.5423 H   0  0  0  0  0  0  0  0  0  0  0  0
    0.0640   -0.4633   -1.0320 H   0  0  0  0  0  0  0  0  0  0  0  0
   -2.8580   -0.6281   -1.7372 H   0  0  0  0  0  0  0  0  0  0  0  0
   -5.6856   -1.9203   -1.1374 H   0  0  0  0  0  0  0  0  0  0  0  0
   -5.6664   -2.9756   -2.5491 H   0  0  0  0  0  0  0  0  0  0  0  0
   -4.5262   -1.0840   -3.6961 H   0  0  0  0  0  0  0  0  0  0  0  0
   -7.0600   -1.3163   -3.6786 H   0  0  0  0  0  0  0  0  0  0  0  0
   -7.2638   -0.4133   -1.2961 H   0  0  0  0  0  0  0  0  0  0  0  0
   -8.2408    0.4147   -2.5196 H   0  0  0  0  0  0  0  0  0  0  0  0
   -5.5754    1.3867   -1.3502 H   0  0  0  0  0  0  0  0  0  0  0  0
   -7.1887    2.0822   -1.0453 H   0  0  0  0  0  0  0  0  0  0  0  0
   -6.1487    3.3592   -2.7336 H   0  0  0  0  0  0  0  0  0  0  0  0
   -4.6198    1.6952   -3.7380 H   0  0  0  0  0  0  0  0  0  0  0  0
   -5.6556    2.5611   -4.9007 H   0  0  0  0  0  0  0  0  0  0  0  0
   -5.6607    0.0737   -5.2899 H   0  0  0  0  0  0  0  0  0  0  0  0
   -7.2744    0.7172   -4.9277 H   0  0  0  0  0  0  0  0  0  0  0  0
   -4.3268   -4.6784   -1.5884 H   0  0  0  0  0  0  0  0  0  0  0  0
   -2.0995   -5.5377   -0.9052 H   0  0  0  0  0  0  0  0  0  0  0  0
  1  2  2  0
  2  3  1  0
  2 29  1  0
  3  4  1  0
  3 30  1  0
  4  5  1  0
  4 31  1  0
  4 32  1  0
  5  6  2  0
  5 29  1  0
  6  7  1  0
  6  8  1  0
  8  9  2  0
  8 33  1  0
  9 10  1  0
  9 34  1  0
 10 11  1  0
 10 29  2  0
 11 12  2  0
 11 27  1  0
 12 13  1  0
 12 35  1  0
 13 14  2  0
 13 26  1  0
 14 15  1  0
 14 36  1  0
 15 16  1  0
 15 24  2  0
 16 17  1  0
 16 37  1  0
 16 38  1  0
 17 18  1  0
 17 39  1  0
 18 19  1  0
 18 23  1  0
 18 40  1  6
 19 20  1  0
 19 41  1  0
 19 42  1  0
 20 21  1  0
 20 43  1  0
 20 44  1  0
 21 22  1  0
 21 45  1  0
 22 23  1  0
 22 46  1  0
 22 47  1  0
 23 48  1  0
 23 49  1  0
 24 25  1  0
 24 50  1  0
 25 26  2  0
 25 51  1  0
 26 27  1  0
 27 28  1  0
M  END

