
     RDKit          3D

 42 47  0  0  0  0  0  0  0  0999 V2000
    6.8930   -5.7196    8.5462 C   0  0  0  0  0  0  0  0  0  0  0  0
    7.0974   -6.0851    7.1090 C   0  0  0  0  0  0  0  0  0  0  0  0
    7.8507   -7.1025    6.5799 C   0  0  0  0  0  0  0  0  0  0  0  0
    7.8829   -7.1981    5.2157 N   0  0  0  0  0  0  0  0  0  0  0  0
    7.1610   -6.2713    4.6715 C   0  0  0  0  0  0  0  0  0  0  0  0
    6.9821   -6.1529    3.2800 N   0  0  0  0  0  0  0  0  0  0  0  0
    7.1014   -7.2383    2.3614 C   0  0  0  0  0  0  0  0  0  0  0  0
    7.2743   -8.3880    2.6417 O   0  0  0  0  0  0  0  0  0  0  0  0
    6.9596   -6.6618    0.9544 C   0  0  1  0  0  0  0  0  0  0  0  0
    5.7484   -7.2540    0.1885 C   0  0  1  0  0  0  0  0  0  0  0  0
    4.6782   -6.6271    0.9271 O   0  0  0  0  0  0  0  0  0  0  0  0
    5.0239   -5.2449    0.6595 C   0  0  2  0  0  0  0  0  0  0  0  0
    4.8654   -5.3377   -0.8711 C   0  0  1  0  0  0  0  0  0  0  0  0
    5.0029   -4.6685   -2.2201 C   0  0  0  0  0  0  0  0  0  0  0  0
    4.7624   -3.2739   -2.5983 C   0  0  0  0  0  0  0  0  0  0  0  0
    4.8068   -2.8712   -3.9489 C   0  0  0  0  0  0  0  0  0  0  0  0
    4.5749   -1.5469   -4.3035 C   0  0  0  0  0  0  0  0  0  0  0  0
    4.2954   -0.6021   -3.3061 C   0  0  0  0  0  0  0  0  0  0  0  0
    4.0066    1.0602   -3.7508 Cl  0  0  0  0  0  0  0  0  0  0  0  0
    4.2491   -0.9769   -1.9613 C   0  0  0  0  0  0  0  0  0  0  0  0
    4.4847   -2.3084   -1.6154 C   0  0  0  0  0  0  0  0  0  0  0  0
    5.1820   -5.6015   -3.1115 N   0  0  0  0  0  0  0  0  0  0  0  0
    5.3780   -6.8550   -2.4802 O   0  0  0  0  0  0  0  0  0  0  0  0
    5.7969   -6.4883   -1.1659 C   0  0  2  0  0  0  0  0  0  0  0  0
    6.4999   -5.1957    1.1572 C   0  0  1  0  0  0  0  0  0  0  0  0
    6.5644   -4.9674    2.6588 C   0  0  0  0  0  0  0  0  0  0  0  0
    6.2701   -3.9518    3.2414 O   0  0  0  0  0  0  0  0  0  0  0  0
    6.3843   -5.1682    5.8051 S   0  0  0  0  0  0  0  0  0  0  0  0
    7.4535   -6.4147    9.1890 H   0  0  0  0  0  0  0  0  0  0  0  0
    5.8310   -5.7715    8.8383 H   0  0  0  0  0  0  0  0  0  0  0  0
    7.2452   -4.6979    8.7650 H   0  0  0  0  0  0  0  0  0  0  0  0
    8.4181   -7.8181    7.1788 H   0  0  0  0  0  0  0  0  0  0  0  0
    7.9171   -6.7823    0.4265 H   0  0  0  0  0  0  0  0  0  0  0  0
    5.6456   -8.3445    0.2001 H   0  0  0  0  0  0  0  0  0  0  0  0
    4.3367   -4.5793    1.1948 H   0  0  0  0  0  0  0  0  0  0  0  0
    3.8462   -5.7683   -0.9309 H   0  0  0  0  0  0  0  0  0  0  0  0
    5.0252   -3.6165   -4.7156 H   0  0  0  0  0  0  0  0  0  0  0  0
    4.6084   -1.2354   -5.3488 H   0  0  0  0  0  0  0  0  0  0  0  0
    4.0326   -0.2309   -1.1951 H   0  0  0  0  0  0  0  0  0  0  0  0
    4.4508   -2.5951   -0.5620 H   0  0  0  0  0  0  0  0  0  0  0  0
    6.8310   -6.1185   -1.3058 H   0  0  0  0  0  0  0  0  0  0  0  0
    7.0983   -4.4268    0.6481 H   0  0  0  0  0  0  0  0  0  0  0  0
  1  2  1  0
  1 29  1  0
  1 30  1  0
  1 31  1  0
  2  3  2  0
  2 28  1  0
  3  4  1  0
  3 32  1  0
  4  5  2  0
  5  6  1  0
  5 28  1  0
  6  7  1  0
  6 26  1  0
  7  8  2  0
  7  9  1  0
  9 10  1  0
  9 25  1  0
  9 33  1  6
 10 11  1  0
 10 24  1  0
 10 34  1  6
 11 12  1  0
 12 13  1  0
 12 25  1  0
 12 35  1  1
 13 14  1  0
 13 24  1  0
 13 36  1  1
 14 15  1  0
 14 22  2  0
 15 16  2  0
 15 21  1  0
 16 17  1  0
 16 37  1  0
 17 18  2  0
 17 38  1  0
 18 19  1  0
 18 20  1  0
 20 21  2  0
 20 39  1  0
 21 40  1  0
 22 23  1  0
 23 24  1  0
 24 41  1  6
 25 26  1  0
 25 42  1  6
 26 27  2  0
M  END

