
     RDKit          3D

 54 57  0  0  0  0  0  0  0  0999 V2000
    1.6464    0.3100   -2.7482 C   0  0  0  0  0  0  0  0  0  0  0  0
    2.8478    1.0614   -2.4288 N   0  0  0  0  0  0  0  0  0  0  0  0
    3.0839    2.2447   -3.2651 C   0  0  0  0  0  0  0  0  0  0  0  0
    2.3621    3.5003   -2.7668 C   0  0  0  0  0  0  0  0  0  0  0  0
    2.7714    3.7291   -1.3898 N   0  0  0  0  0  0  0  0  0  0  0  0
    2.3957    2.6235   -0.5246 C   0  0  0  0  0  0  0  0  0  0  0  0
    3.0543    1.3145   -1.0049 C   0  0  2  0  0  0  0  0  0  0  0  0
    4.4998    1.2922   -0.7632 N   0  0  0  0  0  0  0  0  0  0  0  0
    5.0548    1.2795    0.4786 C   0  0  0  0  0  0  0  0  0  0  0  0
    4.3986    1.4170    1.5017 O   0  0  0  0  0  0  0  0  0  0  0  0
    6.5688    1.0564    0.5126 C   0  0  0  0  0  0  0  0  0  0  0  0
    7.2359    1.8241    1.6534 C   0  0  0  0  0  0  0  0  0  0  0  0
    8.7034    1.4643    1.8216 C   0  0  0  0  0  0  0  0  0  0  0  0
    9.2261    2.2358    2.8873 O   0  0  0  0  0  0  0  0  0  0  0  0
   10.5312    2.1020    3.2412 C   0  0  0  0  0  0  0  0  0  0  0  0
   11.4447    1.2340    2.6230 C   0  0  0  0  0  0  0  0  0  0  0  0
   12.7645    1.1818    3.0772 C   0  0  0  0  0  0  0  0  0  0  0  0
   13.2125    1.9785    4.1399 C   0  0  0  0  0  0  0  0  0  0  0  0
   12.2835    2.8550    4.7562 C   0  0  0  0  0  0  0  0  0  0  0  0
   10.9666    2.9062    4.3083 C   0  0  0  0  0  0  0  0  0  0  0  0
   12.7455    3.7711    5.8746 C   0  0  0  0  0  0  0  0  0  0  0  0
   14.0185    3.3066    6.3942 N   0  0  0  0  0  0  0  0  0  0  0  0
   14.7580    3.9713    7.4431 C   0  0  0  0  0  0  0  0  0  0  0  0
   16.1592    3.3507    7.3327 C   0  0  0  0  0  0  0  0  0  0  0  0
   17.1075    3.5380    8.0539 O   0  0  0  0  0  0  0  0  0  0  0  0
   16.1007    2.5337    6.2220 N   0  0  0  0  0  0  0  0  0  0  0  0
   14.8431    2.5202    5.6216 C   0  0  0  0  0  0  0  0  0  0  0  0
   14.5474    1.8719    4.5588 N   0  0  0  0  0  0  0  0  0  0  0  0
    1.6566    0.0389   -3.8162 H   0  0  0  0  0  0  0  0  0  0  0  0
    0.6911    0.8418   -2.5506 H   0  0  0  0  0  0  0  0  0  0  0  0
    1.6285   -0.6269   -2.1690 H   0  0  0  0  0  0  0  0  0  0  0  0
    2.7938    2.0036   -4.2996 H   0  0  0  0  0  0  0  0  0  0  0  0
    4.1654    2.4674   -3.2698 H   0  0  0  0  0  0  0  0  0  0  0  0
    1.2598    3.3701   -2.8790 H   0  0  0  0  0  0  0  0  0  0  0  0
    2.6517    4.3628   -3.3897 H   0  0  0  0  0  0  0  0  0  0  0  0
    2.4115    4.6097   -1.0308 H   0  0  0  0  0  0  0  0  0  0  0  0
    1.2954    2.4409   -0.5090 H   0  0  0  0  0  0  0  0  0  0  0  0
    2.7128    2.8170    0.5088 H   0  0  0  0  0  0  0  0  0  0  0  0
    2.5924    0.4887   -0.4367 H   0  0  0  0  0  0  0  0  0  0  0  0
    5.0610    1.0177   -1.5612 H   0  0  0  0  0  0  0  0  0  0  0  0
    7.0179    1.3171   -0.4609 H   0  0  0  0  0  0  0  0  0  0  0  0
    6.7267   -0.0299    0.6507 H   0  0  0  0  0  0  0  0  0  0  0  0
    6.6937    1.6152    2.5877 H   0  0  0  0  0  0  0  0  0  0  0  0
    7.1527    2.9098    1.4796 H   0  0  0  0  0  0  0  0  0  0  0  0
    9.2683    1.6689    0.8907 H   0  0  0  0  0  0  0  0  0  0  0  0
    8.8149    0.3839    2.0402 H   0  0  0  0  0  0  0  0  0  0  0  0
   11.1409    0.5945    1.7942 H   0  0  0  0  0  0  0  0  0  0  0  0
   13.4847    0.5072    2.6094 H   0  0  0  0  0  0  0  0  0  0  0  0
   10.2388    3.5755    4.7748 H   0  0  0  0  0  0  0  0  0  0  0  0
   11.9998    3.7910    6.6894 H   0  0  0  0  0  0  0  0  0  0  0  0
   12.8349    4.8191    5.5086 H   0  0  0  0  0  0  0  0  0  0  0  0
   14.3430    3.8012    8.4525 H   0  0  0  0  0  0  0  0  0  0  0  0
   14.8284    5.0672    7.2911 H   0  0  0  0  0  0  0  0  0  0  0  0
   16.8737    1.9740    5.8802 H   0  0  0  0  0  0  0  0  0  0  0  0
  1  2  1  0
  1 29  1  0
  1 30  1  0
  1 31  1  0
  2  3  1  0
  2  7  1  0
  3  4  1  0
  3 32  1  0
  3 33  1  0
  4  5  1  0
  4 34  1  0
  4 35  1  0
  5  6  1  0
  5 36  1  0
  6  7  1  0
  6 37  1  0
  6 38  1  0
  7  8  1  0
  7 39  1  1
  8  9  1  0
  8 40  1  0
  9 10  2  0
  9 11  1  0
 11 12  1  0
 11 41  1  0
 11 42  1  0
 12 13  1  0
 12 43  1  0
 12 44  1  0
 13 14  1  0
 13 45  1  0
 13 46  1  0
 14 15  1  0
 15 16  2  0
 15 20  1  0
 16 17  1  0
 16 47  1  0
 17 18  2  0
 17 48  1  0
 18 19  1  0
 18 28  1  0
 19 20  2  0
 19 21  1  0
 20 49  1  0
 21 22  1  0
 21 50  1  0
 21 51  1  0
 22 23  1  0
 22 27  1  0
 23 24  1  0
 23 52  1  0
 23 53  1  0
 24 25  2  0
 24 26  1  0
 26 27  1  0
 26 54  1  0
 27 28  2  0
M  END

