
     RDKit          3D

 35 36  0  0  0  0  0  0  0  0999 V2000
    3.2710    3.7010    0.7012 C   0  0  0  0  0  0  0  0  0  0  0  0
    2.7703    2.3917    1.0817 N   0  0  0  0  0  0  0  0  0  0  0  0
    1.3254    2.3147    0.9757 C   0  0  0  0  0  0  0  0  0  0  0  0
    3.4246    1.2934    0.3647 C   0  0  0  0  0  0  0  0  0  0  0  0
    4.8898    1.1389    0.6669 C   0  0  0  0  0  0  0  0  0  0  0  0
    5.7871    1.5775   -0.2069 N   0  0  0  0  0  0  0  0  0  0  0  0
    6.9953    1.2660    0.3207 N   0  0  0  0  0  0  0  0  0  0  0  0
    8.2116    1.6139   -0.3753 C   0  0  0  0  0  0  0  0  0  0  0  0
    6.8838    0.6459    1.5268 C   0  0  0  0  0  0  0  0  0  0  0  0
    8.0041    0.2188    2.2296 N   0  0  0  0  0  0  0  0  0  0  0  0
    5.5154    0.5247    1.8021 C   0  0  0  0  0  0  0  0  0  0  0  0
    4.9091   -0.1020    2.9867 C   0  0  0  0  0  0  0  0  0  0  0  0
    3.7481    0.4327    3.5852 C   0  0  0  0  0  0  0  0  0  0  0  0
    3.1819   -0.1537    4.7171 C   0  0  0  0  0  0  0  0  0  0  0  0
    3.7730   -1.2882    5.2817 C   0  0  0  0  0  0  0  0  0  0  0  0
    3.0693   -2.0194    6.7098 Cl  0  0  0  0  0  0  0  0  0  0  0  0
    4.9186   -1.8456    4.7099 C   0  0  0  0  0  0  0  0  0  0  0  0
    5.4713   -1.2579    3.5700 C   0  0  0  0  0  0  0  0  0  0  0  0
    2.8391    4.4727    1.3585 H   0  0  0  0  0  0  0  0  0  0  0  0
    3.0218    3.9689   -0.3515 H   0  0  0  0  0  0  0  0  0  0  0  0
    4.3650    3.7350    0.7982 H   0  0  0  0  0  0  0  0  0  0  0  0
    0.8603    3.1150    1.5732 H   0  0  0  0  0  0  0  0  0  0  0  0
    0.9649    1.3485    1.3638 H   0  0  0  0  0  0  0  0  0  0  0  0
    0.9564    2.4190   -0.0712 H   0  0  0  0  0  0  0  0  0  0  0  0
    3.3214    1.4076   -0.7368 H   0  0  0  0  0  0  0  0  0  0  0  0
    2.9036    0.3633    0.6449 H   0  0  0  0  0  0  0  0  0  0  0  0
    7.9506    1.8062   -1.4231 H   0  0  0  0  0  0  0  0  0  0  0  0
    8.9302    0.7808   -0.3255 H   0  0  0  0  0  0  0  0  0  0  0  0
    8.6847    2.5215    0.0411 H   0  0  0  0  0  0  0  0  0  0  0  0
    8.7774    0.8801    2.2333 H   0  0  0  0  0  0  0  0  0  0  0  0
    7.7834   -0.0697    3.1786 H   0  0  0  0  0  0  0  0  0  0  0  0
    3.2967    1.3274    3.1475 H   0  0  0  0  0  0  0  0  0  0  0  0
    2.2858    0.2720    5.1728 H   0  0  0  0  0  0  0  0  0  0  0  0
    5.3626   -2.7424    5.1458 H   0  0  0  0  0  0  0  0  0  0  0  0
    6.3387   -1.7333    3.1044 H   0  0  0  0  0  0  0  0  0  0  0  0
  1  2  1  0
  1 19  1  0
  1 20  1  0
  1 21  1  0
  2  3  1  0
  2  4  1  0
  3 22  1  0
  3 23  1  0
  3 24  1  0
  4  5  1  0
  4 25  1  0
  4 26  1  0
  5  6  2  0
  5 11  1  0
  6  7  1  0
  7  8  1  0
  7  9  1  0
  8 27  1  0
  8 28  1  0
  8 29  1  0
  9 10  1  0
  9 11  2  0
 10 30  1  0
 10 31  1  0
 11 12  1  0
 12 13  2  0
 12 18  1  0
 13 14  1  0
 13 32  1  0
 14 15  2  0
 14 33  1  0
 15 16  1  0
 15 17  1  0
 17 18  2  0
 17 34  1  0
 18 35  1  0
M  END

