
     RDKit          3D

 28 29  0  0  0  0  0  0  0  0999 V2000
    5.7459   -2.0439    0.1383 C   0  0  0  0  0  0  0  0  0  0  0  0
    4.5848   -1.0905    0.1451 C   0  0  0  0  0  0  0  0  0  0  0  0
    4.7330    0.3237    0.1483 C   0  0  0  0  0  0  0  0  0  0  0  0
    3.5305    1.0111    0.1524 C   0  0  0  0  0  0  0  0  0  0  0  0
    3.3322    2.3690    0.2096 N   0  0  0  0  0  0  0  0  0  0  0  0
    2.1730   -0.0809    0.1554 S   0  0  0  0  0  0  0  0  0  0  0  0
    3.2490   -1.4765    0.1445 C   0  0  0  0  0  0  0  0  0  0  0  0
    2.7020   -2.8025    0.1335 C   0  0  0  0  0  0  0  0  0  0  0  0
    3.3286   -3.9555    0.1279 N   0  0  0  0  0  0  0  0  0  0  0  0
    2.2965   -4.8607    0.1169 C   0  0  0  0  0  0  0  0  0  0  0  0
    2.5063   -6.3497    0.1066 C   0  0  1  0  0  0  0  0  0  0  0  0
    3.2517   -6.7830   -1.1659 C   0  0  0  0  0  0  0  0  0  0  0  0
    3.2416   -6.8016    1.3787 C   0  0  0  0  0  0  0  0  0  0  0  0
    1.1016   -4.3239    0.1187 N   0  0  0  0  0  0  0  0  0  0  0  0
    1.3620   -2.9479    0.1294 O   0  0  0  0  0  0  0  0  0  0  0  0
    6.7004   -1.4980    0.1342 H   0  0  0  0  0  0  0  0  0  0  0  0
    5.7111   -2.7073   -0.7395 H   0  0  0  0  0  0  0  0  0  0  0  0
    5.7197   -2.7076    1.0161 H   0  0  0  0  0  0  0  0  0  0  0  0
    5.7027    0.8243    0.1490 H   0  0  0  0  0  0  0  0  0  0  0  0
    4.1224    2.9510   -0.0446 H   0  0  0  0  0  0  0  0  0  0  0  0
    2.4401    2.7320   -0.1060 H   0  0  0  0  0  0  0  0  0  0  0  0
    1.5001   -6.7990    0.0993 H   0  0  0  0  0  0  0  0  0  0  0  0
    4.2457   -6.3113   -1.2139 H   0  0  0  0  0  0  0  0  0  0  0  0
    2.6958   -6.4967   -2.0723 H   0  0  0  0  0  0  0  0  0  0  0  0
    3.3878   -7.8761   -1.1799 H   0  0  0  0  0  0  0  0  0  0  0  0
    4.2342   -6.3288    1.4425 H   0  0  0  0  0  0  0  0  0  0  0  0
    3.3798   -7.8946    1.3768 H   0  0  0  0  0  0  0  0  0  0  0  0
    2.6772   -6.5305    2.2845 H   0  0  0  0  0  0  0  0  0  0  0  0
  1  2  1  0
  1 16  1  0
  1 17  1  0
  1 18  1  0
  2  3  1  0
  2  7  2  0
  3  4  2  0
  3 19  1  0
  4  5  1  0
  4  6  1  0
  5 20  1  0
  5 21  1  0
  6  7  1  0
  7  8  1  0
  8  9  2  0
  8 15  1  0
  9 10  1  0
 10 11  1  0
 10 14  2  0
 11 12  1  0
 11 13  1  0
 11 22  1  6
 12 23  1  0
 12 24  1  0
 12 25  1  0
 13 26  1  0
 13 27  1  0
 13 28  1  0
 14 15  1  0
M  END

