
     RDKit          3D

 41 43  0  0  0  0  0  0  0  0999 V2000
    1.3139    0.0727   -0.1992 C   0  0  0  0  0  0  0  0  0  0  0  0
    2.7700    0.0457   -0.2181 N   0  0  0  0  0  0  0  0  0  0  0  0
    3.4234   -0.6555    0.8769 C   0  0  0  0  0  0  0  0  0  0  0  0
    3.5346    0.1577    2.1367 C   0  0  0  0  0  0  0  0  0  0  0  0
    3.7324    1.4891    2.3883 C   0  0  0  0  0  0  0  0  0  0  0  0
    3.7878    1.6175    3.8177 C   0  0  0  0  0  0  0  0  0  0  0  0
    3.6220    0.3597    4.3200 C   0  0  0  0  0  0  0  0  0  0  0  0
    3.4653   -0.5335    3.3076 O   0  0  0  0  0  0  0  0  0  0  0  0
    3.4368    0.7935   -1.1530 C   0  0  0  0  0  0  0  0  0  0  0  0
    2.8784    1.4344   -2.0237 O   0  0  0  0  0  0  0  0  0  0  0  0
    4.9783    0.7895   -1.0735 C   0  0  0  0  0  0  0  0  0  0  0  0
    5.5026    1.7795   -1.9411 O   0  0  0  0  0  0  0  0  0  0  0  0
    5.3471    3.0573   -1.5440 C   0  0  0  0  0  0  0  0  0  0  0  0
    4.9483    3.3582   -0.4420 O   0  0  0  0  0  0  0  0  0  0  0  0
    5.7383    4.0248   -2.6244 C   0  0  0  0  0  0  0  0  0  0  0  0
    5.5883    3.6285   -3.9202 C   0  0  0  0  0  0  0  0  0  0  0  0
    5.8971    4.5003   -5.0573 C   0  0  0  0  0  0  0  0  0  0  0  0
    5.7804    4.1897   -6.2311 O   0  0  0  0  0  0  0  0  0  0  0  0
    6.3591    5.7594   -4.6837 N   0  0  0  0  0  0  0  0  0  0  0  0
    6.5803    6.3763   -5.4608 H   0  0  0  0  0  0  0  0  0  0  0  0
    6.5348    6.2178   -3.3942 C   0  0  0  0  0  0  0  0  0  0  0  0
    7.0229    7.5185   -3.1640 C   0  0  0  0  0  0  0  0  0  0  0  0
    7.2007    7.9752   -1.8653 C   0  0  0  0  0  0  0  0  0  0  0  0
    6.8949    7.1448   -0.7746 C   0  0  0  0  0  0  0  0  0  0  0  0
    6.4112    5.8609   -0.9912 C   0  0  0  0  0  0  0  0  0  0  0  0
    6.2210    5.3632   -2.3003 C   0  0  0  0  0  0  0  0  0  0  0  0
    0.9063   -0.9478   -0.2963 H   0  0  0  0  0  0  0  0  0  0  0  0
    0.9671    0.6847   -1.0394 H   0  0  0  0  0  0  0  0  0  0  0  0
    0.9463    0.5095    0.7446 H   0  0  0  0  0  0  0  0  0  0  0  0
    4.4146   -1.0136    0.5545 H   0  0  0  0  0  0  0  0  0  0  0  0
    2.8476   -1.5670    1.1070 H   0  0  0  0  0  0  0  0  0  0  0  0
    3.8426    2.2792    1.6470 H   0  0  0  0  0  0  0  0  0  0  0  0
    3.9300    2.5315    4.3906 H   0  0  0  0  0  0  0  0  0  0  0  0
    3.5858   -0.0472    5.3271 H   0  0  0  0  0  0  0  0  0  0  0  0
    5.3745   -0.1682   -1.4426 H   0  0  0  0  0  0  0  0  0  0  0  0
    5.3334    0.9584   -0.0473 H   0  0  0  0  0  0  0  0  0  0  0  0
    5.2114    2.6366   -4.1649 H   0  0  0  0  0  0  0  0  0  0  0  0
    7.2588    8.1595   -4.0176 H   0  0  0  0  0  0  0  0  0  0  0  0
    7.5797    8.9862   -1.6966 H   0  0  0  0  0  0  0  0  0  0  0  0
    7.0326    7.5080    0.2462 H   0  0  0  0  0  0  0  0  0  0  0  0
    6.1563    5.2223   -0.1478 H   0  0  0  0  0  0  0  0  0  0  0  0
  1  2  1  0
  1 27  1  0
  1 28  1  0
  1 29  1  0
  2  3  1  0
  2  9  1  0
  3  4  1  0
  3 30  1  0
  3 31  1  0
  4  5  2  0
  4  8  1  0
  5  6  1  0
  5 32  1  0
  6  7  2  0
  6 33  1  0
  7  8  1  0
  7 34  1  0
  9 10  2  0
  9 11  1  0
 11 12  1  0
 11 35  1  0
 11 36  1  0
 12 13  1  0
 13 14  2  0
 13 15  1  0
 15 16  2  0
 15 26  1  0
 16 17  1  0
 16 37  1  0
 17 18  2  0
 17 19  1  0
 19 20  1  0
 19 21  1  0
 21 22  1  0
 21 26  2  0
 22 23  2  0
 22 38  1  0
 23 24  1  0
 23 39  1  0
 24 25  2  0
 24 40  1  0
 25 26  1  0
 25 41  1  0
M  END

