
     RDKit          3D

 64 67  0  0  0  0  0  0  0  0999 V2000
    0.0588   -7.6881    2.4734 C   0  0  0  0  0  0  0  0  0  0  0  0
    0.5384   -6.9512    1.3727 O   0  0  0  0  0  0  0  0  0  0  0  0
    1.1474   -5.7575    1.5852 C   0  0  0  0  0  0  0  0  0  0  0  0
    1.3335   -5.1726    2.8472 C   0  0  0  0  0  0  0  0  0  0  0  0
    1.9737   -3.9329    2.9508 C   0  0  0  0  0  0  0  0  0  0  0  0
    2.4374   -3.2566    1.8171 C   0  0  0  0  0  0  0  0  0  0  0  0
    3.1410   -1.9236    1.9348 C   0  0  0  0  0  0  0  0  0  0  0  0
    4.5852   -2.0448    2.1766 N   0  0  0  0  0  0  0  0  0  0  0  0
    5.3627   -2.7298    1.3173 N   0  0  0  0  0  0  0  0  0  0  0  0
    6.5729   -2.6300    1.7429 N   0  0  0  0  0  0  0  0  0  0  0  0
    6.6271   -1.8813    2.8642 N   0  0  0  0  0  0  0  0  0  0  0  0
    5.3852   -1.5132    3.1332 C   0  0  0  0  0  0  0  0  0  0  0  0
    5.0171   -0.6635    4.3257 C   0  0  2  0  0  0  0  0  0  0  0  0
    5.9983   -0.5427    4.8256 H   0  0  0  0  0  0  0  0  0  0  0  0
    4.1283   -1.4422    5.3065 C   0  0  0  0  0  0  0  0  0  0  0  0
    2.7676   -1.1704    5.4945 C   0  0  0  0  0  0  0  0  0  0  0  0
    1.9881   -1.9073    6.3877 C   0  0  0  0  0  0  0  0  0  0  0  0
    2.5414   -2.9744    7.1370 C   0  0  0  0  0  0  0  0  0  0  0  0
    1.7801   -3.7102    8.0277 N   0  0  0  0  0  0  0  0  0  0  0  0
    0.3448   -3.5319    8.0948 C   0  0  0  0  0  0  0  0  0  0  0  0
    2.4092   -4.6747    8.9058 C   0  0  0  0  0  0  0  0  0  0  0  0
    3.9193   -3.2480    6.9400 C   0  0  0  0  0  0  0  0  0  0  0  0
    4.6819   -2.4934    6.0528 C   0  0  0  0  0  0  0  0  0  0  0  0
    4.4298    0.6277    3.9386 N   0  0  0  0  0  0  0  0  0  0  0  0
    4.4216    1.6061    5.0366 C   0  0  0  0  0  0  0  0  0  0  0  0
    5.8035    2.2182    5.3279 C   0  0  0  0  0  0  0  0  0  0  0  0
    6.4477    2.8517    4.0691 C   0  0  2  0  0  0  0  0  0  0  0  0
    5.7980    4.2041    3.7573 C   0  0  0  0  0  0  0  0  0  0  0  0
    6.4447    5.2868    4.2815 N   0  0  0  0  0  0  0  0  0  0  0  0
    4.7600    4.3232    3.1246 O   0  0  0  0  0  0  0  0  0  0  0  0
    6.3559    1.8724    2.8788 C   0  0  0  0  0  0  0  0  0  0  0  0
    4.9493    1.2691    2.7223 C   0  0  0  0  0  0  0  0  0  0  0  0
    2.2470   -3.8563    0.5602 C   0  0  0  0  0  0  0  0  0  0  0  0
    1.6100   -5.0856    0.4400 C   0  0  0  0  0  0  0  0  0  0  0  0
   -0.3842   -8.6072    2.0666 H   0  0  0  0  0  0  0  0  0  0  0  0
   -0.7179   -7.1355    3.0332 H   0  0  0  0  0  0  0  0  0  0  0  0
    0.8706   -7.9619    3.1716 H   0  0  0  0  0  0  0  0  0  0  0  0
    0.9860   -5.6681    3.7538 H   0  0  0  0  0  0  0  0  0  0  0  0
    2.1096   -3.4897    3.9404 H   0  0  0  0  0  0  0  0  0  0  0  0
    2.7419   -1.3249    2.7611 H   0  0  0  0  0  0  0  0  0  0  0  0
    3.0139   -1.3415    1.0093 H   0  0  0  0  0  0  0  0  0  0  0  0
    2.3092   -0.3486    4.9399 H   0  0  0  0  0  0  0  0  0  0  0  0
    0.9415   -1.6305    6.5125 H   0  0  0  0  0  0  0  0  0  0  0  0
   -0.0994   -3.4576    7.0882 H   0  0  0  0  0  0  0  0  0  0  0  0
    0.0452   -2.6256    8.6582 H   0  0  0  0  0  0  0  0  0  0  0  0
   -0.1122   -4.4007    8.5891 H   0  0  0  0  0  0  0  0  0  0  0  0
    3.2807   -4.2428    9.4275 H   0  0  0  0  0  0  0  0  0  0  0  0
    2.7565   -5.5819    8.3728 H   0  0  0  0  0  0  0  0  0  0  0  0
    1.6915   -4.9919    9.6744 H   0  0  0  0  0  0  0  0  0  0  0  0
    4.4025   -4.0619    7.4797 H   0  0  0  0  0  0  0  0  0  0  0  0
    5.7409   -2.7403    5.9288 H   0  0  0  0  0  0  0  0  0  0  0  0
    4.0318    1.1300    5.9477 H   0  0  0  0  0  0  0  0  0  0  0  0
    3.7189    2.4089    4.7608 H   0  0  0  0  0  0  0  0  0  0  0  0
    6.4854    1.4397    5.7100 H   0  0  0  0  0  0  0  0  0  0  0  0
    5.7124    2.9676    6.1324 H   0  0  0  0  0  0  0  0  0  0  0  0
    7.5138    3.0367    4.2873 H   0  0  0  0  0  0  0  0  0  0  0  0
    7.3319    5.2123    4.7594 H   0  0  0  0  0  0  0  0  0  0  0  0
    6.0534    6.2065    4.1125 H   0  0  0  0  0  0  0  0  0  0  0  0
    7.0884    1.0620    3.0317 H   0  0  0  0  0  0  0  0  0  0  0  0
    6.6398    2.3818    1.9435 H   0  0  0  0  0  0  0  0  0  0  0  0
    4.9463    0.5533    1.8883 H   0  0  0  0  0  0  0  0  0  0  0  0
    4.2492    2.0747    2.4587 H   0  0  0  0  0  0  0  0  0  0  0  0
    2.6131   -3.3532   -0.3384 H   0  0  0  0  0  0  0  0  0  0  0  0
    1.4595   -5.5555   -0.5339 H   0  0  0  0  0  0  0  0  0  0  0  0
  1  2  1  0
  1 35  1  0
  1 36  1  0
  1 37  1  0
  2  3  1  0
  3  4  2  0
  3 34  1  0
  4  5  1  0
  4 38  1  0
  5  6  2  0
  5 39  1  0
  6  7  1  0
  6 33  1  0
  7  8  1  0
  7 40  1  0
  7 41  1  0
  8  9  1  0
  8 12  1  0
  9 10  2  0
 10 11  1  0
 11 12  2  0
 12 13  1  0
 13 14  1  1
 13 15  1  0
 13 24  1  0
 15 16  2  0
 15 23  1  0
 16 17  1  0
 16 42  1  0
 17 18  2  0
 17 43  1  0
 18 19  1  0
 18 22  1  0
 19 20  1  0
 19 21  1  0
 20 44  1  0
 20 45  1  0
 20 46  1  0
 21 47  1  0
 21 48  1  0
 21 49  1  0
 22 23  2  0
 22 50  1  0
 23 51  1  0
 24 25  1  0
 24 32  1  0
 25 26  1  0
 25 52  1  0
 25 53  1  0
 26 27  1  0
 26 54  1  0
 26 55  1  0
 27 28  1  0
 27 31  1  0
 27 56  1  1
 28 29  1  0
 28 30  2  0
 29 57  1  0
 29 58  1  0
 31 32  1  0
 31 59  1  0
 31 60  1  0
 32 61  1  0
 32 62  1  0
 33 34  2  0
 33 63  1  0
 34 64  1  0
M  END

