
     RDKit          3D

 34 35  0  0  0  0  0  0  0  0999 V2000
    2.0185    2.4026   -2.7790 C   0  0  0  0  0  0  0  0  0  0  0  0
    2.1884    2.4147   -1.3361 N   0  0  0  0  0  0  0  0  0  0  0  0
    2.7807    1.2055   -0.7852 C   0  0  0  0  0  0  0  0  0  0  0  0
    4.2993    1.1840   -0.8628 C   0  0  0  0  0  0  0  0  0  0  0  0
    5.0363    2.3486   -1.0628 C   0  0  0  0  0  0  0  0  0  0  0  0
    6.4447    2.3532   -1.1312 C   0  0  0  0  0  0  0  0  0  0  0  0
    7.1781    3.6311   -1.3190 C   0  0  0  0  0  0  0  0  0  0  0  0
    6.7240    4.8297   -0.7332 C   0  0  0  0  0  0  0  0  0  0  0  0
    7.3801    6.0484   -0.9053 C   0  0  0  0  0  0  0  0  0  0  0  0
    8.5365    6.0944   -1.6882 C   0  0  0  0  0  0  0  0  0  0  0  0
    9.3803    7.6077   -1.9148 Cl  0  0  0  0  0  0  0  0  0  0  0  0
    9.0280    4.9358   -2.2915 C   0  0  0  0  0  0  0  0  0  0  0  0
    8.3453    3.7384   -2.0968 C   0  0  0  0  0  0  0  0  0  0  0  0
    8.8407    2.6481   -2.7083 F   0  0  0  0  0  0  0  0  0  0  0  0
    7.1065    1.1236   -0.9902 C   0  0  0  0  0  0  0  0  0  0  0  0
    6.3936   -0.0587   -0.7775 C   0  0  0  0  0  0  0  0  0  0  0  0
    4.9943   -0.0369   -0.7082 C   0  0  0  0  0  0  0  0  0  0  0  0
    4.2243   -1.1377   -0.4920 O   0  0  0  0  0  0  0  0  0  0  0  0
    4.8373   -2.4000   -0.3600 C   0  0  0  0  0  0  0  0  0  0  0  0
    1.5189    3.3280   -3.1059 H   0  0  0  0  0  0  0  0  0  0  0  0
    1.4291    1.5386   -3.1589 H   0  0  0  0  0  0  0  0  0  0  0  0
    3.0015    2.3681   -3.2762 H   0  0  0  0  0  0  0  0  0  0  0  0
    1.2987    2.5995   -0.8807 H   0  0  0  0  0  0  0  0  0  0  0  0
    2.3932    0.2818   -1.2638 H   0  0  0  0  0  0  0  0  0  0  0  0
    2.4879    1.1277    0.2773 H   0  0  0  0  0  0  0  0  0  0  0  0
    4.4692    3.2733   -1.1859 H   0  0  0  0  0  0  0  0  0  0  0  0
    5.8322    4.7972   -0.1042 H   0  0  0  0  0  0  0  0  0  0  0  0
    7.0059    6.9561   -0.4304 H   0  0  0  0  0  0  0  0  0  0  0  0
    9.9232    4.9488   -2.9135 H   0  0  0  0  0  0  0  0  0  0  0  0
    8.1949    1.0798   -1.0349 H   0  0  0  0  0  0  0  0  0  0  0  0
    6.9429   -0.9930   -0.6614 H   0  0  0  0  0  0  0  0  0  0  0  0
    4.0278   -3.1276   -0.2119 H   0  0  0  0  0  0  0  0  0  0  0  0
    5.5158   -2.4382    0.5112 H   0  0  0  0  0  0  0  0  0  0  0  0
    5.4070   -2.6778   -1.2650 H   0  0  0  0  0  0  0  0  0  0  0  0
  1  2  1  0
  1 20  1  0
  1 21  1  0
  1 22  1  0
  2  3  1  0
  2 23  1  0
  3  4  1  0
  3 24  1  0
  3 25  1  0
  4  5  2  0
  4 17  1  0
  5  6  1  0
  5 26  1  0
  6  7  1  0
  6 15  2  0
  7  8  2  0
  7 13  1  0
  8  9  1  0
  8 27  1  0
  9 10  2  0
  9 28  1  0
 10 11  1  0
 10 12  1  0
 12 13  2  0
 12 29  1  0
 13 14  1  0
 15 16  1  0
 15 30  1  0
 16 17  2  0
 16 31  1  0
 17 18  1  0
 18 19  1  0
 19 32  1  0
 19 33  1  0
 19 34  1  0
M  END

