
     RDKit          3D

 34 36  0  0  0  0  0  0  0  0999 V2000
    1.5862    0.3402    0.1065 C   0  0  0  0  0  0  0  0  0  0  0  0
    2.9805   -0.0279    0.0183 N   0  0  0  0  0  0  0  0  0  0  0  0
    3.9272    0.9129   -0.1582 N   0  0  0  0  0  0  0  0  0  0  0  0
    5.0908    0.2636   -0.1905 C   0  0  0  0  0  0  0  0  0  0  0  0
    6.3403    1.0323   -0.3784 C   0  0  0  0  0  0  0  0  0  0  0  0
    6.4117    2.3637    0.0750 C   0  0  0  0  0  0  0  0  0  0  0  0
    7.5683    3.1209   -0.1124 C   0  0  0  0  0  0  0  0  0  0  0  0
    8.6792    2.5656   -0.7569 C   0  0  0  0  0  0  0  0  0  0  0  0
    8.6175    1.2482   -1.2194 C   0  0  0  0  0  0  0  0  0  0  0  0
    7.4594    0.4886   -1.0349 C   0  0  0  0  0  0  0  0  0  0  0  0
    4.8910   -1.1524   -0.0593 C   0  0  0  0  0  0  0  0  0  0  0  0
    5.8597   -2.2646    0.0285 C   0  0  0  0  0  0  0  0  0  0  0  0
    6.9462   -2.2234    0.9250 C   0  0  0  0  0  0  0  0  0  0  0  0
    7.8451   -3.2846    1.0284 C   0  0  0  0  0  0  0  0  0  0  0  0
    7.6634   -4.4226    0.2359 C   0  0  0  0  0  0  0  0  0  0  0  0
    8.7834   -5.7609    0.3665 Cl  0  0  0  0  0  0  0  0  0  0  0  0
    6.5948   -4.4976   -0.6602 C   0  0  0  0  0  0  0  0  0  0  0  0
    5.7089   -3.4221   -0.7610 C   0  0  0  0  0  0  0  0  0  0  0  0
    3.5039   -1.2846    0.0611 C   0  0  0  0  0  0  0  0  0  0  0  0
    2.7034   -2.3956    0.3223 N   0  0  0  0  0  0  0  0  0  0  0  0
    1.5214    1.3372    0.5608 H   0  0  0  0  0  0  0  0  0  0  0  0
    1.0602   -0.3899    0.7384 H   0  0  0  0  0  0  0  0  0  0  0  0
    1.1048    0.3741   -0.8865 H   0  0  0  0  0  0  0  0  0  0  0  0
    5.5415    2.7929    0.5746 H   0  0  0  0  0  0  0  0  0  0  0  0
    7.6047    4.1519    0.2497 H   0  0  0  0  0  0  0  0  0  0  0  0
    9.5865    3.1582   -0.9009 H   0  0  0  0  0  0  0  0  0  0  0  0
    9.4749    0.8079   -1.7356 H   0  0  0  0  0  0  0  0  0  0  0  0
    7.4191   -0.5311   -1.4211 H   0  0  0  0  0  0  0  0  0  0  0  0
    7.0850   -1.3424    1.5550 H   0  0  0  0  0  0  0  0  0  0  0  0
    8.6824   -3.2388    1.7270 H   0  0  0  0  0  0  0  0  0  0  0  0
    6.4687   -5.3857   -1.2821 H   0  0  0  0  0  0  0  0  0  0  0  0
    4.8924   -3.4742   -1.4858 H   0  0  0  0  0  0  0  0  0  0  0  0
    3.2541   -3.2343    0.4842 H   0  0  0  0  0  0  0  0  0  0  0  0
    1.9929   -2.5822   -0.3833 H   0  0  0  0  0  0  0  0  0  0  0  0
  1  2  1  0
  1 21  1  0
  1 22  1  0
  1 23  1  0
  2  3  1  0
  2 19  1  0
  3  4  2  0
  4  5  1  0
  4 11  1  0
  5  6  2  0
  5 10  1  0
  6  7  1  0
  6 24  1  0
  7  8  2  0
  7 25  1  0
  8  9  1  0
  8 26  1  0
  9 10  2  0
  9 27  1  0
 10 28  1  0
 11 12  1  0
 11 19  2  0
 12 13  2  0
 12 18  1  0
 13 14  1  0
 13 29  1  0
 14 15  2  0
 14 30  1  0
 15 16  1  0
 15 17  1  0
 17 18  2  0
 17 31  1  0
 18 32  1  0
 19 20  1  0
 20 33  1  0
 20 34  1  0
M  END

