
     RDKit          3D

 48 51  0  0  0  0  0  0  0  0999 V2000
    1.4874   -0.3244   -1.0076 C   0  0  0  0  0  0  0  0  0  0  0  0
    2.3583    0.0602    0.0909 N   0  0  0  0  0  0  0  0  0  0  0  0
    2.5397    1.3824    0.4058 C   0  0  0  0  0  0  0  0  0  0  0  0
    3.5826    1.6757    1.2022 N   0  0  0  0  0  0  0  0  0  0  0  0
    3.8202    2.9466    1.5471 C   0  0  0  0  0  0  0  0  0  0  0  0
    3.1345    4.0246    1.1905 N   0  0  0  0  0  0  0  0  0  0  0  0
    2.0928    3.7328    0.4040 C   0  0  0  0  0  0  0  0  0  0  0  0
    1.1990    4.6442   -0.0877 N   0  0  0  0  0  0  0  0  0  0  0  0
    1.2512    5.6379    0.0970 H   0  0  0  0  0  0  0  0  0  0  0  0
    0.2384    3.9886   -0.8325 C   0  0  0  0  0  0  0  0  0  0  0  0
    0.5041    2.6403   -0.8370 C   0  0  0  0  0  0  0  0  0  0  0  0
    1.6989    2.4447   -0.0513 C   0  0  0  0  0  0  0  0  0  0  0  0
    3.2663   -0.9207    0.6827 C   0  0  1  0  0  0  0  0  0  0  0  0
    3.3061   -1.0803    2.2229 C   0  0  0  0  0  0  0  0  0  0  0  0
    3.3984   -2.6223    2.0325 C   0  0  2  0  0  0  0  0  0  0  0  0
    4.8184   -3.1590    2.1847 C   0  0  0  0  0  0  0  0  0  0  0  0
    4.8978   -4.9312    1.7535 S   0  0  1  0  0  0  0  0  0  0  0  0
    3.9334   -5.6376    2.6116 O   0  0  0  0  0  0  0  0  0  0  0  0
    4.8410   -5.0521    0.2865 O   0  0  0  0  0  0  0  0  0  0  0  0
    6.5556   -5.4394    2.2690 C   0  0  0  0  0  0  0  0  0  0  0  0
    6.7458   -5.9265    3.5645 C   0  0  0  0  0  0  0  0  0  0  0  0
    8.0240   -6.3268    3.9561 C   0  0  0  0  0  0  0  0  0  0  0  0
    9.0899   -6.2421    3.0512 C   0  0  0  0  0  0  0  0  0  0  0  0
   10.4826   -6.6264    3.4967 C   0  0  1  0  0  0  0  0  0  0  0  0
   10.4575   -7.5881    4.4338 F   0  0  0  0  0  0  0  0  0  0  0  0
   11.2277   -7.0731    2.4727 F   0  0  0  0  0  0  0  0  0  0  0  0
   11.1304   -5.5730    4.0281 F   0  0  0  0  0  0  0  0  0  0  0  0
    8.8814   -5.7715    1.7489 C   0  0  0  0  0  0  0  0  0  0  0  0
    7.6054   -5.3697    1.3505 C   0  0  0  0  0  0  0  0  0  0  0  0
    2.8996   -2.4215    0.5719 C   0  0  0  0  0  0  0  0  0  0  0  0
    1.6064    0.3576   -1.8637 H   0  0  0  0  0  0  0  0  0  0  0  0
    0.4203   -0.3359   -0.7224 H   0  0  0  0  0  0  0  0  0  0  0  0
    1.7505   -1.3311   -1.3532 H   0  0  0  0  0  0  0  0  0  0  0  0
    4.6879    3.1097    2.1988 H   0  0  0  0  0  0  0  0  0  0  0  0
   -0.5710    4.5378   -1.3086 H   0  0  0  0  0  0  0  0  0  0  0  0
   -0.1013    1.8952   -1.3431 H   0  0  0  0  0  0  0  0  0  0  0  0
    4.2913   -0.7390    0.3129 H   0  0  0  0  0  0  0  0  0  0  0  0
    2.3494   -0.7912    2.6822 H   0  0  0  0  0  0  0  0  0  0  0  0
    4.1227   -0.5675    2.7481 H   0  0  0  0  0  0  0  0  0  0  0  0
    2.7319   -3.2215    2.6693 H   0  0  0  0  0  0  0  0  0  0  0  0
    5.1593   -3.0865    3.2291 H   0  0  0  0  0  0  0  0  0  0  0  0
    5.5467   -2.6533    1.5326 H   0  0  0  0  0  0  0  0  0  0  0  0
    5.8946   -6.0078    4.2431 H   0  0  0  0  0  0  0  0  0  0  0  0
    8.1923   -6.7193    4.9604 H   0  0  0  0  0  0  0  0  0  0  0  0
    9.7137   -5.7333    1.0440 H   0  0  0  0  0  0  0  0  0  0  0  0
    7.4128   -5.0245    0.3330 H   0  0  0  0  0  0  0  0  0  0  0  0
    1.8123   -2.5783    0.5285 H   0  0  0  0  0  0  0  0  0  0  0  0
    3.3773   -3.0206   -0.2156 H   0  0  0  0  0  0  0  0  0  0  0  0
  1  2  1  0
  1 31  1  0
  1 32  1  0
  1 33  1  0
  2  3  1  0
  2 13  1  0
  3  4  2  0
  3 12  1  0
  4  5  1  0
  5  6  2  0
  5 34  1  0
  6  7  1  0
  7  8  1  0
  7 12  2  0
  8  9  1  0
  8 10  1  0
 10 11  2  0
 10 35  1  0
 11 12  1  0
 11 36  1  0
 13 14  1  0
 13 30  1  0
 13 37  1  6
 14 15  1  0
 14 38  1  0
 14 39  1  0
 15 16  1  0
 15 30  1  0
 15 40  1  1
 17 16  1  6
 16 41  1  0
 16 42  1  0
 17 18  2  0
 17 19  2  0
 17 20  1  0
 20 21  2  0
 20 29  1  0
 21 22  1  0
 21 43  1  0
 22 23  2  0
 22 44  1  0
 23 24  1  0
 23 28  1  0
 24 25  1  1
 24 26  1  0
 24 27  1  0
 28 29  2  0
 28 45  1  0
 29 46  1  0
 30 47  1  0
 30 48  1  0
M  END

