
     RDKit          3D

 66 67  0  0  0  0  0  0  0  0999 V2000
   15.1282    2.8865    2.4499 C   0  0  0  0  0  0  0  0  0  0  0  0
   14.4386    1.7503    3.1868 C   0  0  0  0  0  0  0  0  0  0  0  0
   14.4604    0.5298    2.4307 O   0  0  0  0  0  0  0  0  0  0  0  0
   13.4696    0.3568    1.5188 C   0  0  0  0  0  0  0  0  0  0  0  0
   12.5750    1.1492    1.3225 O   0  0  0  0  0  0  0  0  0  0  0  0
   13.6615   -0.8435    0.8856 N   0  0  0  0  0  0  0  0  0  0  0  0
   12.8860   -1.4370   -0.1280 C   0  0  0  0  0  0  0  0  0  0  0  0
   11.7157   -0.8571   -0.6495 C   0  0  0  0  0  0  0  0  0  0  0  0
   11.0060   -1.5188   -1.6524 C   0  0  0  0  0  0  0  0  0  0  0  0
   11.4194   -2.7579   -2.1693 C   0  0  0  0  0  0  0  0  0  0  0  0
   10.6433   -3.4281   -3.2790 C   0  0  0  0  0  0  0  0  0  0  0  0
   10.9118   -2.8103   -4.6732 C   0  0  2  0  0  0  0  0  0  0  0  0
   10.7473   -1.7268   -4.5922 H   0  0  0  0  0  0  0  0  0  0  0  0
    9.9368   -3.3319   -5.7404 C   0  0  0  0  0  0  0  0  0  0  0  0
    8.5341   -2.7449   -5.5753 C   0  0  0  0  0  0  0  0  0  0  0  0
    8.3114   -1.8682   -4.7472 O   0  0  0  0  0  0  0  0  0  0  0  0
    7.5449   -3.2286   -6.3964 N   0  0  0  0  0  0  0  0  0  0  0  0
    7.7139   -4.2314   -7.4432 C   0  0  0  0  0  0  0  0  0  0  0  0
    6.7240   -5.3904   -7.2645 C   0  0  0  0  0  0  0  0  0  0  0  0
    5.2824   -4.8778   -7.1611 C   0  0  0  0  0  0  0  0  0  0  0  0
    5.1642   -3.8011   -6.0750 C   0  0  0  0  0  0  0  0  0  0  0  0
    6.1913   -2.6844   -6.2878 C   0  0  0  0  0  0  0  0  0  0  0  0
   12.3032   -2.9712   -5.0981 N   0  0  0  0  0  0  0  0  0  0  0  0
   12.8789   -4.1751   -5.3758 C   0  0  0  0  0  0  0  0  0  0  0  0
   12.2801   -5.2345   -5.4453 O   0  0  0  0  0  0  0  0  0  0  0  0
   14.2074   -4.0093   -5.5767 O   0  0  0  0  0  0  0  0  0  0  0  0
   15.0844   -5.1243   -5.9324 C   0  0  1  0  0  0  0  0  0  0  0  0
   14.6523   -5.7283   -7.2733 C   0  0  0  0  0  0  0  0  0  0  0  0
   16.4542   -4.4536   -6.0587 C   0  0  0  0  0  0  0  0  0  0  0  0
   15.0947   -6.1672   -4.8091 C   0  0  0  0  0  0  0  0  0  0  0  0
   12.5877   -3.3222   -1.6368 C   0  0  0  0  0  0  0  0  0  0  0  0
   13.3110   -2.6772   -0.6335 C   0  0  0  0  0  0  0  0  0  0  0  0
   15.1610    3.7837    3.0890 H   0  0  0  0  0  0  0  0  0  0  0  0
   14.5804    3.1419    1.5307 H   0  0  0  0  0  0  0  0  0  0  0  0
   16.1621    2.6151    2.1845 H   0  0  0  0  0  0  0  0  0  0  0  0
   13.3945    2.0096    3.4170 H   0  0  0  0  0  0  0  0  0  0  0  0
   14.9612    1.5070    4.1238 H   0  0  0  0  0  0  0  0  0  0  0  0
   14.4738   -1.3627    1.1982 H   0  0  0  0  0  0  0  0  0  0  0  0
   11.3738    0.1000   -0.2614 H   0  0  0  0  0  0  0  0  0  0  0  0
   10.0943   -1.0582   -2.0452 H   0  0  0  0  0  0  0  0  0  0  0  0
    9.5659   -3.3291   -3.0819 H   0  0  0  0  0  0  0  0  0  0  0  0
   10.8823   -4.5017   -3.3240 H   0  0  0  0  0  0  0  0  0  0  0  0
    9.9214   -4.4311   -5.7229 H   0  0  0  0  0  0  0  0  0  0  0  0
   10.3201   -3.0488   -6.7358 H   0  0  0  0  0  0  0  0  0  0  0  0
    8.7436   -4.6050   -7.4475 H   0  0  0  0  0  0  0  0  0  0  0  0
    7.5417   -3.7536   -8.4288 H   0  0  0  0  0  0  0  0  0  0  0  0
    6.9895   -5.9440   -6.3465 H   0  0  0  0  0  0  0  0  0  0  0  0
    6.8312   -6.0937   -8.1072 H   0  0  0  0  0  0  0  0  0  0  0  0
    4.5898   -5.7118   -6.9607 H   0  0  0  0  0  0  0  0  0  0  0  0
    4.9797   -4.4481   -8.1344 H   0  0  0  0  0  0  0  0  0  0  0  0
    5.3303   -4.2540   -5.0817 H   0  0  0  0  0  0  0  0  0  0  0  0
    4.1502   -3.3676   -6.0638 H   0  0  0  0  0  0  0  0  0  0  0  0
    6.1925   -1.9649   -5.4606 H   0  0  0  0  0  0  0  0  0  0  0  0
    5.9515   -2.1313   -7.2176 H   0  0  0  0  0  0  0  0  0  0  0  0
   12.9391   -2.1959   -4.9569 H   0  0  0  0  0  0  0  0  0  0  0  0
   14.6191   -4.9486   -8.0506 H   0  0  0  0  0  0  0  0  0  0  0  0
   13.6611   -6.1923   -7.1940 H   0  0  0  0  0  0  0  0  0  0  0  0
   15.3787   -6.4936   -7.5890 H   0  0  0  0  0  0  0  0  0  0  0  0
   16.4333   -3.6744   -6.8357 H   0  0  0  0  0  0  0  0  0  0  0  0
   17.2205   -5.1961   -6.3285 H   0  0  0  0  0  0  0  0  0  0  0  0
   16.7434   -3.9824   -5.1070 H   0  0  0  0  0  0  0  0  0  0  0  0
   14.1106   -6.6407   -4.7026 H   0  0  0  0  0  0  0  0  0  0  0  0
   15.3674   -5.6943   -3.8523 H   0  0  0  0  0  0  0  0  0  0  0  0
   15.8419   -6.9457   -5.0294 H   0  0  0  0  0  0  0  0  0  0  0  0
   12.9373   -4.2903   -2.0064 H   0  0  0  0  0  0  0  0  0  0  0  0
   14.2169   -3.1429   -0.2330 H   0  0  0  0  0  0  0  0  0  0  0  0
  1  2  1  0
  1 33  1  0
  1 34  1  0
  1 35  1  0
  2  3  1  0
  2 36  1  0
  2 37  1  0
  3  4  1  0
  4  5  2  0
  4  6  1  0
  6  7  1  0
  6 38  1  0
  7  8  2  0
  7 32  1  0
  8  9  1  0
  8 39  1  0
  9 10  2  0
  9 40  1  0
 10 11  1  0
 10 31  1  0
 11 12  1  0
 11 41  1  0
 11 42  1  0
 12 13  1  1
 12 14  1  0
 12 23  1  0
 14 15  1  0
 14 43  1  0
 14 44  1  0
 15 16  2  0
 15 17  1  0
 17 18  1  0
 17 22  1  0
 18 19  1  0
 18 45  1  0
 18 46  1  0
 19 20  1  0
 19 47  1  0
 19 48  1  0
 20 21  1  0
 20 49  1  0
 20 50  1  0
 21 22  1  0
 21 51  1  0
 21 52  1  0
 22 53  1  0
 22 54  1  0
 23 24  1  0
 23 55  1  0
 24 25  2  0
 24 26  1  0
 27 26  1  1
 27 28  1  0
 27 29  1  0
 27 30  1  0
 28 56  1  0
 28 57  1  0
 28 58  1  0
 29 59  1  0
 29 60  1  0
 29 61  1  0
 30 62  1  0
 30 63  1  0
 30 64  1  0
 31 32  2  0
 31 65  1  0
 32 66  1  0
M  END

