
     RDKit          3D

 56 60  0  0  0  0  0  0  0  0999 V2000
    2.0797   -0.9183    3.6079 C   0  0  0  0  0  0  0  0  0  0  0  0
    3.2681   -0.4495    2.8472 C   0  0  0  0  0  0  0  0  0  0  0  0
    3.8311    0.7860    2.6417 C   0  0  0  0  0  0  0  0  0  0  0  0
    4.9748    0.5843    1.8119 C   0  0  0  0  0  0  0  0  0  0  0  0
    5.0374   -0.7650    1.5632 C   0  0  0  0  0  0  0  0  0  0  0  0
    5.9664   -1.5796    0.7906 C   0  0  0  0  0  0  0  0  0  0  0  0
    5.7886   -2.9944    0.7106 C   0  0  0  0  0  0  0  0  0  0  0  0
    6.6779   -3.7629   -0.0135 C   0  0  0  0  0  0  0  0  0  0  0  0
    6.5063   -5.2631   -0.0684 C   0  0  0  0  0  0  0  0  0  0  0  0
    7.4450   -6.0368    0.0023 O   0  0  0  0  0  0  0  0  0  0  0  0
    5.1918   -5.6666   -0.1994 N   0  0  0  0  0  0  0  0  0  0  0  0
    4.6697   -6.9704   -0.2303 C   0  0  0  0  0  0  0  0  0  0  0  0
    5.4539   -8.1277   -0.0670 C   0  0  0  0  0  0  0  0  0  0  0  0
    4.8465   -9.3869   -0.0865 C   0  0  0  0  0  0  0  0  0  0  0  0
    3.4714   -9.5312   -0.2709 C   0  0  0  0  0  0  0  0  0  0  0  0
    2.7095   -8.3726   -0.4511 C   0  0  0  0  0  0  0  0  0  0  0  0
    0.9317   -8.5143   -0.6743 S   0  0  1  0  0  0  0  0  0  0  0  0
    0.4525   -9.5825    0.1977 O   0  0  0  0  0  0  0  0  0  0  0  0
    0.3764   -7.1615   -0.6405 O   0  0  0  0  0  0  0  0  0  0  0  0
    0.7295   -9.1469   -2.2228 N   0  0  0  0  0  0  0  0  0  0  0  0
    0.7310   -8.5093   -3.4610 C   0  0  0  0  0  0  0  0  0  0  0  0
    0.4836   -9.1773   -4.5193 N   0  0  0  0  0  0  0  0  0  0  0  0
    0.6067   -8.2874   -5.6725 C   0  0  0  0  0  0  0  0  0  0  0  0
    0.6575   -6.8407   -5.1167 C   0  0  0  0  0  0  0  0  0  0  0  0
    1.0700   -7.0412   -3.6456 C   0  0  0  0  0  0  0  0  0  0  0  0
    3.2819   -7.1041   -0.4243 C   0  0  0  0  0  0  0  0  0  0  0  0
    7.7785   -3.1155   -0.6690 C   0  0  0  0  0  0  0  0  0  0  0  0
    8.7703   -3.7853   -1.4380 C   0  0  0  0  0  0  0  0  0  0  0  0
    9.7794   -3.0727   -2.0545 C   0  0  0  0  0  0  0  0  0  0  0  0
    9.8501   -1.6627   -1.9309 C   0  0  0  0  0  0  0  0  0  0  0  0
    8.9088   -0.9835   -1.1892 C   0  0  0  0  0  0  0  0  0  0  0  0
    7.8527   -1.6836   -0.5383 C   0  0  0  0  0  0  0  0  0  0  0  0
    6.9596   -0.9578    0.1791 N   0  0  0  0  0  0  0  0  0  0  0  0
    3.9977   -1.3931    2.1933 O   0  0  0  0  0  0  0  0  0  0  0  0
    1.5787   -0.0662    4.0872 H   0  0  0  0  0  0  0  0  0  0  0  0
    2.3642   -1.6395    4.3926 H   0  0  0  0  0  0  0  0  0  0  0  0
    1.3527   -1.4215    2.9482 H   0  0  0  0  0  0  0  0  0  0  0  0
    3.4640    1.7286    3.0425 H   0  0  0  0  0  0  0  0  0  0  0  0
    5.6768    1.3232    1.4348 H   0  0  0  0  0  0  0  0  0  0  0  0
    4.9595   -3.4463    1.2569 H   0  0  0  0  0  0  0  0  0  0  0  0
    4.5132   -4.9253   -0.3292 H   0  0  0  0  0  0  0  0  0  0  0  0
    6.5265   -8.0254    0.0771 H   0  0  0  0  0  0  0  0  0  0  0  0
    5.4676  -10.2748    0.0543 H   0  0  0  0  0  0  0  0  0  0  0  0
    2.9966  -10.5134   -0.2629 H   0  0  0  0  0  0  0  0  0  0  0  0
    0.4946  -10.1375   -2.2291 H   0  0  0  0  0  0  0  0  0  0  0  0
   -0.2316   -8.4473   -6.3703 H   0  0  0  0  0  0  0  0  0  0  0  0
    1.5261   -8.5493   -6.2298 H   0  0  0  0  0  0  0  0  0  0  0  0
   -0.3431   -6.3825   -5.1627 H   0  0  0  0  0  0  0  0  0  0  0  0
    1.3441   -6.1861   -5.6730 H   0  0  0  0  0  0  0  0  0  0  0  0
    0.5418   -6.3958   -2.9315 H   0  0  0  0  0  0  0  0  0  0  0  0
    2.1525   -6.8920   -3.4794 H   0  0  0  0  0  0  0  0  0  0  0  0
    2.6402   -6.2276   -0.5378 H   0  0  0  0  0  0  0  0  0  0  0  0
    8.7343   -4.8708   -1.5180 H   0  0  0  0  0  0  0  0  0  0  0  0
   10.5348   -3.6024   -2.6402 H   0  0  0  0  0  0  0  0  0  0  0  0
   10.6569   -1.1157   -2.4255 H   0  0  0  0  0  0  0  0  0  0  0  0
    8.9348    0.1014   -1.0722 H   0  0  0  0  0  0  0  0  0  0  0  0
  1  2  1  0
  1 35  1  0
  1 36  1  0
  1 37  1  0
  2  3  2  0
  2 34  1  0
  3  4  1  0
  3 38  1  0
  4  5  2  0
  4 39  1  0
  5  6  1  0
  5 34  1  0
  6  7  2  0
  6 33  1  0
  7  8  1  0
  7 40  1  0
  8  9  1  0
  8 27  2  0
  9 10  2  0
  9 11  1  0
 11 12  1  0
 11 41  1  0
 12 13  2  0
 12 26  1  0
 13 14  1  0
 13 42  1  0
 14 15  2  0
 14 43  1  0
 15 16  1  0
 15 44  1  0
 16 17  1  0
 16 26  2  0
 17 18  2  0
 17 19  2  0
 17 20  1  6
 20 21  1  0
 20 45  1  0
 21 22  2  0
 21 25  1  0
 22 23  1  0
 23 24  1  0
 23 46  1  0
 23 47  1  0
 24 25  1  0
 24 48  1  0
 24 49  1  0
 25 50  1  0
 25 51  1  0
 26 52  1  0
 27 28  1  0
 27 32  1  0
 28 29  2  0
 28 53  1  0
 29 30  1  0
 29 54  1  0
 30 31  2  0
 30 55  1  0
 31 32  1  0
 31 56  1  0
 32 33  2  0
M  END

