
     RDKit          3D

 48 50  0  0  0  0  0  0  0  0999 V2000
    2.0071   -0.2721   -1.1418 O   0  0  0  0  0  0  0  0  0  0  0  0
    2.7066   -0.2241   -0.1349 C   0  0  0  0  0  0  0  0  0  0  0  0
    2.6284    0.8382    0.7435 N   0  0  0  0  0  0  0  0  0  0  0  0
    1.6747    1.9140    0.5437 C   0  0  0  0  0  0  0  0  0  0  0  0
    2.2879    3.1600   -0.1139 C   0  0  1  0  0  0  0  0  0  0  0  0
    2.8077    2.9692   -1.5592 C   0  0  0  0  0  0  0  0  0  0  0  0
    2.3982    4.1790   -2.4323 C   0  0  0  0  0  0  0  0  0  0  0  0
    0.9579    4.5219   -2.0600 C   0  0  0  0  0  0  0  0  0  0  0  0
    1.0102    4.5137   -0.2356 S   0  0  1  0  0  0  0  0  0  0  0  0
   -0.2726    4.0947    0.3493 O   0  0  0  0  0  0  0  0  0  0  0  0
    1.6533    5.7680    0.1892 O   0  0  0  0  0  0  0  0  0  0  0  0
    3.6121   -1.2225    0.1843 N   0  0  0  0  0  0  0  0  0  0  0  0
    3.6837   -2.3943   -0.6855 C   0  0  0  0  0  0  0  0  0  0  0  0
    3.0215   -3.6393   -0.0894 C   0  0  0  0  0  0  0  0  0  0  0  0
    3.5775   -4.0711    1.2849 C   0  0  0  0  0  0  0  0  0  0  0  0
    3.1659   -3.2863    2.4371 N   0  0  0  0  0  0  0  0  0  0  0  0
    1.9359   -3.6938    3.0812 C   0  0  0  0  0  0  0  0  0  0  0  0
    2.0756   -4.8742    4.0160 C   0  0  0  0  0  0  0  0  0  0  0  0
    3.2450   -5.3549    4.5516 C   0  0  0  0  0  0  0  0  0  0  0  0
    2.9103   -6.6832    5.6097 S   0  0  0  0  0  0  0  0  0  0  0  0
    1.2157   -6.4904    5.2496 C   0  0  0  0  0  0  0  0  0  0  0  0
    0.9374   -5.5315    4.4199 N   0  0  0  0  0  0  0  0  0  0  0  0
    3.5795   -1.9015    2.6113 C   0  0  0  0  0  0  0  0  0  0  0  0
    4.3530   -1.2971    1.4330 C   0  0  0  0  0  0  0  0  0  0  0  0
    3.2247    0.8835    1.5572 H   0  0  0  0  0  0  0  0  0  0  0  0
    1.2312    2.1958    1.5111 H   0  0  0  0  0  0  0  0  0  0  0  0
    0.8613    1.5249   -0.0832 H   0  0  0  0  0  0  0  0  0  0  0  0
    3.0467    3.6166    0.5404 H   0  0  0  0  0  0  0  0  0  0  0  0
    2.3676    2.0470   -1.9684 H   0  0  0  0  0  0  0  0  0  0  0  0
    3.8991    2.8331   -1.5648 H   0  0  0  0  0  0  0  0  0  0  0  0
    2.4918    3.9418   -3.5032 H   0  0  0  0  0  0  0  0  0  0  0  0
    3.0393    5.0506   -2.2240 H   0  0  0  0  0  0  0  0  0  0  0  0
    0.2366    3.7503   -2.3704 H   0  0  0  0  0  0  0  0  0  0  0  0
    0.6077    5.5173   -2.3659 H   0  0  0  0  0  0  0  0  0  0  0  0
    4.7511   -2.6054   -0.8930 H   0  0  0  0  0  0  0  0  0  0  0  0
    3.1991   -2.1239   -1.6312 H   0  0  0  0  0  0  0  0  0  0  0  0
    3.1588   -4.4738   -0.8001 H   0  0  0  0  0  0  0  0  0  0  0  0
    1.9335   -3.4688   -0.0091 H   0  0  0  0  0  0  0  0  0  0  0  0
    4.6828   -4.1219    1.2254 H   0  0  0  0  0  0  0  0  0  0  0  0
    3.2581   -5.1062    1.4837 H   0  0  0  0  0  0  0  0  0  0  0  0
    1.1273   -3.9353    2.3591 H   0  0  0  0  0  0  0  0  0  0  0  0
    1.5466   -2.8467    3.6714 H   0  0  0  0  0  0  0  0  0  0  0  0
    4.2538   -4.9923    4.3693 H   0  0  0  0  0  0  0  0  0  0  0  0
    0.4700   -7.1494    5.7021 H   0  0  0  0  0  0  0  0  0  0  0  0
    4.2154   -1.7769    3.5151 H   0  0  0  0  0  0  0  0  0  0  0  0
    2.6916   -1.2604    2.7761 H   0  0  0  0  0  0  0  0  0  0  0  0
    5.2709   -1.8752    1.2413 H   0  0  0  0  0  0  0  0  0  0  0  0
    4.7145   -0.2985    1.7337 H   0  0  0  0  0  0  0  0  0  0  0  0
  1  2  2  0
  2  3  1  0
  2 12  1  0
  3  4  1  0
  3 25  1  0
  4  5  1  0
  4 26  1  0
  4 27  1  0
  5  6  1  0
  5  9  1  0
  5 28  1  1
  6  7  1  0
  6 29  1  0
  6 30  1  0
  7  8  1  0
  7 31  1  0
  7 32  1  0
  9  8  1  6
  8 33  1  0
  8 34  1  0
  9 10  2  0
  9 11  2  0
 12 13  1  0
 12 24  1  0
 13 14  1  0
 13 35  1  0
 13 36  1  0
 14 15  1  0
 14 37  1  0
 14 38  1  0
 15 16  1  0
 15 39  1  0
 15 40  1  0
 16 17  1  0
 16 23  1  0
 17 18  1  0
 17 41  1  0
 17 42  1  0
 18 19  2  0
 18 22  1  0
 19 20  1  0
 19 43  1  0
 20 21  1  0
 21 22  2  0
 21 44  1  0
 23 24  1  0
 23 45  1  0
 23 46  1  0
 24 47  1  0
 24 48  1  0
M  END

