
     RDKit          3D

 43 44  0  0  0  0  0  0  0  0999 V2000
    4.2276    3.6120    1.7837 C   0  0  0  0  0  0  0  0  0  0  0  0
    2.8800    2.9155    2.0166 C   0  0  1  0  0  0  0  0  0  0  0  0
    1.7139    3.8724    1.7344 C   0  0  0  0  0  0  0  0  0  0  0  0
    2.7132    1.6346    1.1760 C   0  0  0  0  0  0  0  0  0  0  0  0
    3.7508    0.5318    1.4093 C   0  0  1  0  0  0  0  0  0  0  0  0
    3.6767    0.0192    2.7705 N   0  0  0  0  0  0  0  0  0  0  0  0
    4.1977   -1.1721    3.1713 C   0  0  0  0  0  0  0  0  0  0  0  0
    4.2347   -1.5408    4.3307 O   0  0  0  0  0  0  0  0  0  0  0  0
    4.7916   -2.0048    2.0307 C   0  0  2  0  0  0  0  0  0  0  0  0
    6.2897   -1.6686    1.9009 C   0  0  0  0  0  0  0  0  0  0  0  0
    4.0334   -1.8394    0.7782 N   0  0  0  0  0  0  0  0  0  0  0  0
    3.7038   -2.9922   -0.0808 C   0  0  1  0  0  0  0  0  0  0  0  0
    4.8996   -3.6517   -0.8099 C   0  0  0  0  0  0  0  0  0  0  0  0
    5.6146   -4.7399    0.0070 C   0  0  0  0  0  0  0  0  0  0  0  0
    4.6008   -5.6726    0.6690 C   0  0  0  0  0  0  0  0  0  0  0  0
    3.6626   -4.9435    1.4400 O   0  0  0  0  0  0  0  0  0  0  0  0
    2.8807   -4.0672    0.6511 C   0  0  0  0  0  0  0  0  0  0  0  0
    3.5642   -0.6105    0.3891 C   0  0  0  0  0  0  0  0  0  0  0  0
    3.0215   -0.4014   -0.6852 O   0  0  0  0  0  0  0  0  0  0  0  0
    4.2937    4.5444    2.3668 H   0  0  0  0  0  0  0  0  0  0  0  0
    4.3561    3.8746    0.7196 H   0  0  0  0  0  0  0  0  0  0  0  0
    5.0827    2.9836    2.0797 H   0  0  0  0  0  0  0  0  0  0  0  0
    2.8228    2.6481    3.0903 H   0  0  0  0  0  0  0  0  0  0  0  0
    1.7141    4.1890    0.6775 H   0  0  0  0  0  0  0  0  0  0  0  0
    1.7809    4.7797    2.3558 H   0  0  0  0  0  0  0  0  0  0  0  0
    0.7416    3.3953    1.9374 H   0  0  0  0  0  0  0  0  0  0  0  0
    2.7478    1.8874    0.1054 H   0  0  0  0  0  0  0  0  0  0  0  0
    1.7123    1.2060    1.3539 H   0  0  0  0  0  0  0  0  0  0  0  0
    4.7573    0.9533    1.2106 H   0  0  0  0  0  0  0  0  0  0  0  0
    3.3337    0.6261    3.5091 H   0  0  0  0  0  0  0  0  0  0  0  0
    4.6795   -3.0488    2.3463 H   0  0  0  0  0  0  0  0  0  0  0  0
    6.4482   -0.6118    1.6351 H   0  0  0  0  0  0  0  0  0  0  0  0
    6.7726   -2.2840    1.1291 H   0  0  0  0  0  0  0  0  0  0  0  0
    6.7906   -1.8581    2.8622 H   0  0  0  0  0  0  0  0  0  0  0  0
    3.0580   -2.5492   -0.8503 H   0  0  0  0  0  0  0  0  0  0  0  0
    5.6018   -2.8755   -1.1525 H   0  0  0  0  0  0  0  0  0  0  0  0
    4.4921   -4.1198   -1.7235 H   0  0  0  0  0  0  0  0  0  0  0  0
    6.2476   -4.2957    0.7915 H   0  0  0  0  0  0  0  0  0  0  0  0
    6.2880   -5.3223   -0.6445 H   0  0  0  0  0  0  0  0  0  0  0  0
    5.0919   -6.3791    1.3550 H   0  0  0  0  0  0  0  0  0  0  0  0
    4.0682   -6.2683   -0.1032 H   0  0  0  0  0  0  0  0  0  0  0  0
    2.1445   -3.6015    1.3227 H   0  0  0  0  0  0  0  0  0  0  0  0
    2.3229   -4.6504   -0.1114 H   0  0  0  0  0  0  0  0  0  0  0  0
  1  2  1  0
  1 20  1  0
  1 21  1  0
  1 22  1  0
  2  3  1  0
  2  4  1  0
  2 23  1  1
  3 24  1  0
  3 25  1  0
  3 26  1  0
  4  5  1  0
  4 27  1  0
  4 28  1  0
  5  6  1  0
  5 18  1  0
  5 29  1  6
  6  7  1  0
  6 30  1  0
  7  8  2  0
  7  9  1  0
  9 10  1  0
  9 11  1  0
  9 31  1  1
 10 32  1  0
 10 33  1  0
 10 34  1  0
 11 12  1  0
 11 18  1  0
 12 13  1  0
 12 17  1  0
 12 35  1  6
 13 14  1  0
 13 36  1  0
 13 37  1  0
 14 15  1  0
 14 38  1  0
 14 39  1  0
 15 16  1  0
 15 40  1  0
 15 41  1  0
 16 17  1  0
 17 42  1  0
 17 43  1  0
 18 19  2  0
M  END

