
     RDKit          3D

 43 45  0  0  0  0  0  0  0  0999 V2000
    0.9322    0.0496    1.4010 C   0  0  0  0  0  0  0  0  0  0  0  0
    2.3142   -0.5557    1.5550 C   0  0  0  0  0  0  0  0  0  0  0  0
    3.2667    0.4926    1.4797 O   0  0  0  0  0  0  0  0  0  0  0  0
    4.5891    0.2083    1.5941 C   0  0  0  0  0  0  0  0  0  0  0  0
    5.4515    1.3345    1.5092 C   0  0  0  0  0  0  0  0  0  0  0  0
    6.8312    1.2083    1.6085 C   0  0  0  0  0  0  0  0  0  0  0  0
    7.3336   -0.0802    1.7958 C   0  0  0  0  0  0  0  0  0  0  0  0
    8.6415   -0.4379    1.9203 O   0  0  0  0  0  0  0  0  0  0  0  0
    8.6590   -1.8079    2.0886 C   0  0  0  0  0  0  0  0  0  0  0  0
    9.9804   -2.4503    2.2454 C   0  0  0  0  0  0  0  0  0  0  0  0
   10.1285   -3.6514    2.3638 O   0  0  0  0  0  0  0  0  0  0  0  0
   11.0387   -1.5451    2.2448 N   0  0  0  0  0  0  0  0  0  0  0  0
   12.3790   -1.9037    2.3347 C   0  0  0  0  0  0  0  0  0  0  0  0
   13.5261   -1.3325    1.1562 S   0  0  0  0  0  0  0  0  0  0  0  0
   14.8456   -2.1905    1.9151 C   0  0  0  0  0  0  0  0  0  0  0  0
   16.2374   -2.0580    1.3640 C   0  0  0  0  0  0  0  0  0  0  0  0
   14.4144   -2.9094    3.0041 C   0  0  0  0  0  0  0  0  0  0  0  0
   15.2881   -3.7606    3.8813 C   0  0  0  0  0  0  0  0  0  0  0  0
   12.9985   -2.7392    3.2501 C   0  0  0  0  0  0  0  0  0  0  0  0
   12.3436   -3.3163    4.3788 C   0  0  0  0  0  0  0  0  0  0  0  0
   11.8679   -3.7736    5.3351 N   0  0  0  0  0  0  0  0  0  0  0  0
    7.3928   -2.3420    2.0750 C   0  0  0  0  0  0  0  0  0  0  0  0
    6.9860   -3.7723    2.2274 C   0  0  0  0  0  0  0  0  0  0  0  0
    6.5083   -1.2135    1.8832 C   0  0  0  0  0  0  0  0  0  0  0  0
    5.1088   -1.0756    1.7817 C   0  0  0  0  0  0  0  0  0  0  0  0
    0.1639   -0.7372    1.4540 H   0  0  0  0  0  0  0  0  0  0  0  0
    0.8387    0.5638    0.4323 H   0  0  0  0  0  0  0  0  0  0  0  0
    0.7374    0.7816    2.1996 H   0  0  0  0  0  0  0  0  0  0  0  0
    2.5081   -1.2995    0.7585 H   0  0  0  0  0  0  0  0  0  0  0  0
    2.4072   -1.0808    2.5249 H   0  0  0  0  0  0  0  0  0  0  0  0
    4.9879    2.3119    1.3629 H   0  0  0  0  0  0  0  0  0  0  0  0
    7.4909    2.0752    1.5444 H   0  0  0  0  0  0  0  0  0  0  0  0
   10.8084   -0.5755    2.0501 H   0  0  0  0  0  0  0  0  0  0  0  0
   16.2454   -1.4889    0.4229 H   0  0  0  0  0  0  0  0  0  0  0  0
   16.6788   -3.0455    1.1532 H   0  0  0  0  0  0  0  0  0  0  0  0
   16.9073   -1.5378    2.0695 H   0  0  0  0  0  0  0  0  0  0  0  0
   16.3313   -3.7640    3.5370 H   0  0  0  0  0  0  0  0  0  0  0  0
   14.9317   -4.8036    3.9021 H   0  0  0  0  0  0  0  0  0  0  0  0
   15.2751   -3.4026    4.9240 H   0  0  0  0  0  0  0  0  0  0  0  0
    7.8610   -4.4135    2.3851 H   0  0  0  0  0  0  0  0  0  0  0  0
    6.4471   -4.1201    1.3296 H   0  0  0  0  0  0  0  0  0  0  0  0
    6.2980   -3.8900    3.0817 H   0  0  0  0  0  0  0  0  0  0  0  0
    4.4662   -1.9526    1.8499 H   0  0  0  0  0  0  0  0  0  0  0  0
  1  2  1  0
  1 26  1  0
  1 27  1  0
  1 28  1  0
  2  3  1  0
  2 29  1  0
  2 30  1  0
  3  4  1  0
  4  5  2  0
  4 25  1  0
  5  6  1  0
  5 31  1  0
  6  7  2  0
  6 32  1  0
  7  8  1  0
  7 24  1  0
  8  9  1  0
  9 10  1  0
  9 22  2  0
 10 11  2  0
 10 12  1  0
 12 13  1  0
 12 33  1  0
 13 14  1  0
 13 19  2  0
 14 15  1  0
 15 16  1  0
 15 17  2  0
 16 34  1  0
 16 35  1  0
 16 36  1  0
 17 18  1  0
 17 19  1  0
 18 37  1  0
 18 38  1  0
 18 39  1  0
 19 20  1  0
 20 21  3  0
 22 23  1  0
 22 24  1  0
 23 40  1  0
 23 41  1  0
 23 42  1  0
 24 25  2  0
 25 43  1  0
M  END

