
     RDKit          3D

 60 63  0  0  0  0  0  0  0  0999 V2000
    1.1052   -4.6122    3.6907 C   0  0  0  0  0  0  0  0  0  0  0  0
    1.5390   -3.4505    3.0353 O   0  0  0  0  0  0  0  0  0  0  0  0
    0.8738   -3.1787    1.8325 C   0  0  0  0  0  0  0  0  0  0  0  0
    1.5113   -1.9622    1.1747 C   0  0  0  0  0  0  0  0  0  0  0  0
    2.9160   -2.1769    0.7992 N   0  0  0  0  0  0  0  0  0  0  0  0
    3.9861   -1.7611    1.5781 C   0  0  0  0  0  0  0  0  0  0  0  0
    3.5897   -0.9224    3.0974 S   0  0  0  0  0  0  0  0  0  0  0  0
    5.2384   -0.3069    3.6410 C   0  0  2  0  0  0  0  0  0  0  0  0
    4.9383    0.1350    4.6075 H   0  0  0  0  0  0  0  0  0  0  0  0
    5.8208    0.7950    2.7577 C   0  0  0  0  0  0  0  0  0  0  0  0
    6.1514   -1.4814    4.0706 C   0  0  0  0  0  0  0  0  0  0  0  0
    5.7265   -2.3425    4.8149 O   0  0  0  0  0  0  0  0  0  0  0  0
    7.4544   -1.3958    3.6349 N   0  0  0  0  0  0  0  0  0  0  0  0
    8.5291   -2.2223    3.9588 C   0  0  0  0  0  0  0  0  0  0  0  0
    8.4472   -3.1892    4.9830 C   0  0  0  0  0  0  0  0  0  0  0  0
    9.5620   -3.9439    5.3353 C   0  0  0  0  0  0  0  0  0  0  0  0
   10.7890   -3.7690    4.6848 C   0  0  0  0  0  0  0  0  0  0  0  0
   10.8722   -2.8514    3.6446 C   0  0  0  0  0  0  0  0  0  0  0  0
    9.7615   -2.0805    3.2391 C   0  0  0  0  0  0  0  0  0  0  0  0
    9.8961   -1.1172    2.1134 C   0  0  0  0  0  0  0  0  0  0  0  0
    9.1186   -0.1706    1.9726 O   0  0  0  0  0  0  0  0  0  0  0  0
   10.9846   -1.2809    1.0874 C   0  0  0  0  0  0  0  0  0  0  0  0
   11.5400   -0.1149    0.5309 C   0  0  0  0  0  0  0  0  0  0  0  0
   12.4989   -0.1987   -0.4777 C   0  0  0  0  0  0  0  0  0  0  0  0
   12.8925   -1.4491   -0.9687 C   0  0  0  0  0  0  0  0  0  0  0  0
   12.3235   -2.6134   -0.4447 C   0  0  0  0  0  0  0  0  0  0  0  0
   11.3798   -2.5327    0.5832 C   0  0  0  0  0  0  0  0  0  0  0  0
    5.2262   -1.9356    1.2584 N   0  0  0  0  0  0  0  0  0  0  0  0
    5.5363   -2.5718    0.0760 C   0  0  0  0  0  0  0  0  0  0  0  0
    6.8891   -2.7440   -0.2933 C   0  0  0  0  0  0  0  0  0  0  0  0
    7.2105   -3.3836   -1.4820 C   0  0  0  0  0  0  0  0  0  0  0  0
    6.2008   -3.8708   -2.3365 C   0  0  0  0  0  0  0  0  0  0  0  0
    4.8666   -3.7047   -1.9911 C   0  0  0  0  0  0  0  0  0  0  0  0
    4.5281   -3.0550   -0.7899 C   0  0  0  0  0  0  0  0  0  0  0  0
    3.1220   -2.8594   -0.4260 C   0  0  0  0  0  0  0  0  0  0  0  0
    2.1668   -3.2257   -1.0915 O   0  0  0  0  0  0  0  0  0  0  0  0
    1.7131   -4.7282    4.5994 H   0  0  0  0  0  0  0  0  0  0  0  0
    1.2325   -5.5155    3.0601 H   0  0  0  0  0  0  0  0  0  0  0  0
    0.0370   -4.5497    3.9837 H   0  0  0  0  0  0  0  0  0  0  0  0
   -0.2025   -2.9588    2.0037 H   0  0  0  0  0  0  0  0  0  0  0  0
    0.9231   -4.0408    1.1387 H   0  0  0  0  0  0  0  0  0  0  0  0
    1.4569   -1.0926    1.8433 H   0  0  0  0  0  0  0  0  0  0  0  0
    0.9616   -1.7343    0.2520 H   0  0  0  0  0  0  0  0  0  0  0  0
    6.7072    1.2436    3.2345 H   0  0  0  0  0  0  0  0  0  0  0  0
    5.0782    1.5935    2.6176 H   0  0  0  0  0  0  0  0  0  0  0  0
    6.1135    0.4136    1.7709 H   0  0  0  0  0  0  0  0  0  0  0  0
    7.7022   -0.6688    2.9598 H   0  0  0  0  0  0  0  0  0  0  0  0
    7.4967   -3.3228    5.4923 H   0  0  0  0  0  0  0  0  0  0  0  0
    9.4711   -4.6742    6.1439 H   0  0  0  0  0  0  0  0  0  0  0  0
   11.6680   -4.3432    4.9851 H   0  0  0  0  0  0  0  0  0  0  0  0
   11.8264   -2.7040    3.1384 H   0  0  0  0  0  0  0  0  0  0  0  0
   11.2032    0.8549    0.9024 H   0  0  0  0  0  0  0  0  0  0  0  0
   12.9363    0.7138   -0.8904 H   0  0  0  0  0  0  0  0  0  0  0  0
   13.6376   -1.5150   -1.7656 H   0  0  0  0  0  0  0  0  0  0  0  0
   12.6133   -3.5907   -0.8386 H   0  0  0  0  0  0  0  0  0  0  0  0
   10.9306   -3.4467    0.9764 H   0  0  0  0  0  0  0  0  0  0  0  0
    7.6593   -2.3529    0.3723 H   0  0  0  0  0  0  0  0  0  0  0  0
    8.2608   -3.5074   -1.7591 H   0  0  0  0  0  0  0  0  0  0  0  0
    6.4695   -4.3732   -3.2687 H   0  0  0  0  0  0  0  0  0  0  0  0
    4.0572   -4.0631   -2.6303 H   0  0  0  0  0  0  0  0  0  0  0  0
  1  2  1  0
  1 37  1  0
  1 38  1  0
  1 39  1  0
  2  3  1  0
  3  4  1  0
  3 40  1  0
  3 41  1  0
  4  5  1  0
  4 42  1  0
  4 43  1  0
  5  6  1  0
  5 35  1  0
  6  7  2  0
  6 28  1  0
  7  8  1  0
  8  9  1  1
  8 10  1  0
  8 11  1  0
 10 44  1  0
 10 45  1  0
 10 46  1  0
 11 12  2  0
 11 13  1  0
 13 14  1  0
 13 47  1  0
 14 15  2  0
 14 19  1  0
 15 16  1  0
 15 48  1  0
 16 17  2  0
 16 49  1  0
 17 18  1  0
 17 50  1  0
 18 19  2  0
 18 51  1  0
 19 20  1  0
 20 21  2  0
 20 22  1  0
 22 23  2  0
 22 27  1  0
 23 24  1  0
 23 52  1  0
 24 25  2  0
 24 53  1  0
 25 26  1  0
 25 54  1  0
 26 27  2  0
 26 55  1  0
 27 56  1  0
 28 29  2  0
 29 30  1  0
 29 34  1  0
 30 31  2  0
 30 57  1  0
 31 32  1  0
 31 58  1  0
 32 33  2  0
 32 59  1  0
 33 34  1  0
 33 60  1  0
 34 35  2  0
 35 36  1  0
M  CHG  2   7   1  36  -1
M  END

