
     RDKit          3D

 76 78  0  0  0  0  0  0  0  0999 V2000
    5.2273    6.5093    0.4129 C   0  0  0  0  0  0  0  0  0  0  0  0
    6.3793    5.6385    0.9367 C   0  0  1  0  0  0  0  0  0  0  0  0
    7.4411    5.4207   -0.1540 C   0  0  0  0  0  0  0  0  0  0  0  0
    7.0155    6.2867    2.1698 C   0  0  0  0  0  0  0  0  0  0  0  0
    5.8992    4.3707    1.4205 O   0  0  0  0  0  0  0  0  0  0  0  0
    5.1050    3.5668    0.5789 C   0  0  0  0  0  0  0  0  0  0  0  0
    4.9533    2.2046    1.2736 C   0  0  1  0  0  0  0  0  0  0  0  0
    4.4624    2.2485    2.6502 N   0  0  0  0  0  0  0  0  0  0  0  0
    3.2582    3.0310    2.9132 C   0  0  0  0  0  0  0  0  0  0  0  0
    2.7899    2.8627    4.3461 C   0  0  0  0  0  0  0  0  0  0  0  0
    2.7748    1.5988    4.9574 C   0  0  0  0  0  0  0  0  0  0  0  0
    2.3148    1.4622    6.2687 C   0  0  0  0  0  0  0  0  0  0  0  0
    1.8693    2.5744    6.9867 C   0  0  0  0  0  0  0  0  0  0  0  0
    1.8764    3.8515    6.3972 C   0  0  0  0  0  0  0  0  0  0  0  0
    1.4306    5.0646    7.1303 C   0  0  0  0  0  0  0  0  0  0  0  0
    0.6703    5.0190    8.3016 C   0  0  0  0  0  0  0  0  0  0  0  0
    0.3320    6.1307    8.9774 N   0  0  0  0  0  0  0  0  0  0  0  0
    0.7098    7.2967    8.4929 C   0  0  0  0  0  0  0  0  0  0  0  0
    0.3710    8.4698    9.1574 N   0  0  0  0  0  0  0  0  0  0  0  0
    1.4151    7.3689    7.2429 C   0  0  0  0  0  0  0  0  0  0  0  0
    1.7569    8.6160    6.7459 N   0  0  0  0  0  0  0  0  0  0  0  0
    2.3633    8.7460    5.4282 C   0  0  0  0  0  0  0  0  0  0  0  0
    3.1798   10.0157    5.3098 C   0  0  0  0  0  0  0  0  0  0  0  0
    4.5882   10.0220    5.3629 C   0  0  0  0  0  0  0  0  0  0  0  0
    5.4737    8.5261    5.5888 Cl  0  0  0  0  0  0  0  0  0  0  0  0
    5.3362   11.1974    5.2417 C   0  0  0  0  0  0  0  0  0  0  0  0
    4.6802   12.4154    5.0683 C   0  0  0  0  0  0  0  0  0  0  0  0
    3.2868   12.4609    5.0185 C   0  0  0  0  0  0  0  0  0  0  0  0
    2.5659   11.2719    5.1413 C   0  0  0  0  0  0  0  0  0  0  0  0
    0.8103   11.3723    5.0900 Cl  0  0  0  0  0  0  0  0  0  0  0  0
    1.7678    6.2689    6.6101 N   0  0  0  0  0  0  0  0  0  0  0  0
    2.3469    3.9698    5.0762 C   0  0  0  0  0  0  0  0  0  0  0  0
    4.0407    1.2922    0.4491 C   0  0  0  0  0  0  0  0  0  0  0  0
    3.0015    1.6639   -0.0518 O   0  0  0  0  0  0  0  0  0  0  0  0
    4.5324    0.0514    0.3800 O   0  0  0  0  0  0  0  0  0  0  0  0
    3.8161   -1.0548   -0.2756 C   0  0  1  0  0  0  0  0  0  0  0  0
    3.6529   -0.7570   -1.7696 C   0  0  0  0  0  0  0  0  0  0  0  0
    4.7550   -2.2422   -0.0567 C   0  0  0  0  0  0  0  0  0  0  0  0
    2.4711   -1.2892    0.4188 C   0  0  0  0  0  0  0  0  0  0  0  0
    5.5935    7.5191    0.1704 H   0  0  0  0  0  0  0  0  0  0  0  0
    4.4385    6.6056    1.1753 H   0  0  0  0  0  0  0  0  0  0  0  0
    4.7765    6.0939   -0.5014 H   0  0  0  0  0  0  0  0  0  0  0  0
    7.8859    6.3805   -0.4598 H   0  0  0  0  0  0  0  0  0  0  0  0
    7.0150    4.9549   -1.0562 H   0  0  0  0  0  0  0  0  0  0  0  0
    8.2457    4.7705    0.2231 H   0  0  0  0  0  0  0  0  0  0  0  0
    7.4864    7.2475    1.9107 H   0  0  0  0  0  0  0  0  0  0  0  0
    7.7848    5.6211    2.5900 H   0  0  0  0  0  0  0  0  0  0  0  0
    6.2587    6.4701    2.9474 H   0  0  0  0  0  0  0  0  0  0  0  0
    5.5707    3.4113   -0.4138 H   0  0  0  0  0  0  0  0  0  0  0  0
    4.1081    4.0075    0.4028 H   0  0  0  0  0  0  0  0  0  0  0  0
    5.9426    1.7268    1.3168 H   0  0  0  0  0  0  0  0  0  0  0  0
    5.2171    2.5806    3.2480 H   0  0  0  0  0  0  0  0  0  0  0  0
    2.4674    2.6828    2.2267 H   0  0  0  0  0  0  0  0  0  0  0  0
    3.3882    4.1129    2.7111 H   0  0  0  0  0  0  0  0  0  0  0  0
    3.1453    0.7359    4.4002 H   0  0  0  0  0  0  0  0  0  0  0  0
    2.3130    0.4779    6.7448 H   0  0  0  0  0  0  0  0  0  0  0  0
    1.5427    2.4444    8.0202 H   0  0  0  0  0  0  0  0  0  0  0  0
    0.3180    4.0723    8.7181 H   0  0  0  0  0  0  0  0  0  0  0  0
   -0.0363    8.2904   10.0718 H   0  0  0  0  0  0  0  0  0  0  0  0
    1.1171    9.1616    9.1957 H   0  0  0  0  0  0  0  0  0  0  0  0
    1.0882    9.3457    6.9803 H   0  0  0  0  0  0  0  0  0  0  0  0
    1.6009    8.7328    4.6272 H   0  0  0  0  0  0  0  0  0  0  0  0
    3.0027    7.8709    5.2774 H   0  0  0  0  0  0  0  0  0  0  0  0
    6.4247   11.1453    5.2859 H   0  0  0  0  0  0  0  0  0  0  0  0
    5.2591   13.3370    4.9728 H   0  0  0  0  0  0  0  0  0  0  0  0
    2.7545   13.4038    4.8878 H   0  0  0  0  0  0  0  0  0  0  0  0
    2.3652    4.9629    4.6243 H   0  0  0  0  0  0  0  0  0  0  0  0
    4.6318   -0.5458   -2.2282 H   0  0  0  0  0  0  0  0  0  0  0  0
    2.9913    0.1028   -1.9339 H   0  0  0  0  0  0  0  0  0  0  0  0
    3.2228   -1.6353   -2.2760 H   0  0  0  0  0  0  0  0  0  0  0  0
    5.7371   -2.0489   -0.5141 H   0  0  0  0  0  0  0  0  0  0  0  0
    4.3317   -3.1520   -0.5090 H   0  0  0  0  0  0  0  0  0  0  0  0
    4.9058   -2.4226    1.0183 H   0  0  0  0  0  0  0  0  0  0  0  0
    1.7900   -0.4425    0.2666 H   0  0  0  0  0  0  0  0  0  0  0  0
    2.6190   -1.4354    1.5000 H   0  0  0  0  0  0  0  0  0  0  0  0
    2.0000   -2.1977    0.0120 H   0  0  0  0  0  0  0  0  0  0  0  0
  1  2  1  0
  1 40  1  0
  1 41  1  0
  1 42  1  0
  2  3  1  0
  2  4  1  0
  2  5  1  1
  3 43  1  0
  3 44  1  0
  3 45  1  0
  4 46  1  0
  4 47  1  0
  4 48  1  0
  5  6  1  0
  6  7  1  0
  6 49  1  0
  6 50  1  0
  7  8  1  0
  7 33  1  0
  7 51  1  1
  8  9  1  0
  8 52  1  0
  9 10  1  0
  9 53  1  0
  9 54  1  0
 10 11  2  0
 10 32  1  0
 11 12  1  0
 11 55  1  0
 12 13  2  0
 12 56  1  0
 13 14  1  0
 13 57  1  0
 14 15  1  0
 14 32  2  0
 15 16  2  0
 15 31  1  0
 16 17  1  0
 16 58  1  0
 17 18  2  0
 18 19  1  0
 18 20  1  0
 19 59  1  0
 19 60  1  0
 20 21  1  0
 20 31  2  0
 21 22  1  0
 21 61  1  0
 22 23  1  0
 22 62  1  0
 22 63  1  0
 23 24  2  0
 23 29  1  0
 24 25  1  0
 24 26  1  0
 26 27  2  0
 26 64  1  0
 27 28  1  0
 27 65  1  0
 28 29  2  0
 28 66  1  0
 29 30  1  0
 32 67  1  0
 33 34  2  0
 33 35  1  0
 36 35  1  1
 36 37  1  0
 36 38  1  0
 36 39  1  0
 37 68  1  0
 37 69  1  0
 37 70  1  0
 38 71  1  0
 38 72  1  0
 38 73  1  0
 39 74  1  0
 39 75  1  0
 39 76  1  0
M  END

