
     RDKit          3D

 56 59  0  0  0  0  0  0  0  0999 V2000
    1.8242   -0.5199    0.0310 C   0  0  0  0  0  0  0  0  0  0  0  0
    3.2070   -1.0933    0.2921 C   0  0  0  0  0  0  0  0  0  0  0  0
    3.7611   -0.5476    1.5043 O   0  0  0  0  0  0  0  0  0  0  0  0
    4.5602    0.5187    1.3944 C   0  0  0  0  0  0  0  0  0  0  0  0
    4.8774    1.0511    0.3579 O   0  0  0  0  0  0  0  0  0  0  0  0
    5.0289    1.0033    2.7229 C   0  0  0  0  0  0  0  0  0  0  0  0
    5.0856    2.3599    3.1433 C   0  0  0  0  0  0  0  0  0  0  0  0
    4.6349    3.5757    2.4464 C   0  0  0  0  0  0  0  0  0  0  0  0
    5.3276    4.7451    2.5393 C   0  0  0  0  0  0  0  0  0  0  0  0
    4.8779    5.9395    1.8731 C   0  0  0  0  0  0  0  0  0  0  0  0
    5.5615    7.1657    1.9215 C   0  0  0  0  0  0  0  0  0  0  0  0
    5.0781    8.2810    1.2307 C   0  0  0  0  0  0  0  0  0  0  0  0
    5.8081    9.4201    1.3400 O   0  0  0  0  0  0  0  0  0  0  0  0
    5.3842   10.5834    0.6660 C   0  0  0  0  0  0  0  0  0  0  0  0
    3.8918    8.1669    0.4765 C   0  0  0  0  0  0  0  0  0  0  0  0
    3.2040    6.9536    0.4212 C   0  0  0  0  0  0  0  0  0  0  0  0
    3.6916    5.8472    1.1149 C   0  0  0  0  0  0  0  0  0  0  0  0
    2.9924    4.6805    1.0487 O   0  0  0  0  0  0  0  0  0  0  0  0
    3.3601    3.5253    1.7008 C   0  0  0  0  0  0  0  0  0  0  0  0
    2.6204    2.5761    1.6345 O   0  0  0  0  0  0  0  0  0  0  0  0
    5.6477    2.4539    4.3491 N   0  0  0  0  0  0  0  0  0  0  0  0
    5.9447    1.2034    4.7311 N   0  0  0  0  0  0  0  0  0  0  0  0
    6.6167    1.0370    5.9865 C   0  0  0  0  0  0  0  0  0  0  0  0
    6.0028    0.3597    7.0441 C   0  0  0  0  0  0  0  0  0  0  0  0
    6.6671    0.2652    8.2683 C   0  0  0  0  0  0  0  0  0  0  0  0
    7.9259    0.8453    8.4471 C   0  0  0  0  0  0  0  0  0  0  0  0
    8.5174    1.5287    7.3808 C   0  0  0  0  0  0  0  0  0  0  0  0
   10.0880    2.2655    7.5894 Cl  0  0  0  0  0  0  0  0  0  0  0  0
    7.8720    1.6321    6.1467 C   0  0  0  0  0  0  0  0  0  0  0  0
    5.5948    0.2798    3.7683 C   0  0  0  0  0  0  0  0  0  0  0  0
    5.9128   -1.1735    3.7629 C   0  0  0  0  0  0  0  0  0  0  0  0
    6.1383   -1.7878    2.7491 O   0  0  0  0  0  0  0  0  0  0  0  0
    5.9204   -1.7143    4.9921 O   0  0  0  0  0  0  0  0  0  0  0  0
    6.2668   -3.1114    5.1004 C   0  0  0  0  0  0  0  0  0  0  0  0
    5.0563   -4.0058    4.8960 C   0  0  0  0  0  0  0  0  0  0  0  0
    1.4027   -0.9597   -0.8876 H   0  0  0  0  0  0  0  0  0  0  0  0
    1.8726    0.5722   -0.0880 H   0  0  0  0  0  0  0  0  0  0  0  0
    1.1425   -0.7418    0.8667 H   0  0  0  0  0  0  0  0  0  0  0  0
    3.8922   -0.8789   -0.5401 H   0  0  0  0  0  0  0  0  0  0  0  0
    3.1725   -2.1803    0.4585 H   0  0  0  0  0  0  0  0  0  0  0  0
    6.2507    4.7757    3.1229 H   0  0  0  0  0  0  0  0  0  0  0  0
    6.4827    7.2630    2.4995 H   0  0  0  0  0  0  0  0  0  0  0  0
    6.1211   11.3642    0.8973 H   0  0  0  0  0  0  0  0  0  0  0  0
    4.3892   10.9203    1.0095 H   0  0  0  0  0  0  0  0  0  0  0  0
    5.3520   10.4375   -0.4290 H   0  0  0  0  0  0  0  0  0  0  0  0
    3.4954    9.0211   -0.0721 H   0  0  0  0  0  0  0  0  0  0  0  0
    2.2846    6.8529   -0.1579 H   0  0  0  0  0  0  0  0  0  0  0  0
    5.0177   -0.0836    6.9036 H   0  0  0  0  0  0  0  0  0  0  0  0
    6.1937   -0.2593    9.1016 H   0  0  0  0  0  0  0  0  0  0  0  0
    8.4464    0.7776    9.4036 H   0  0  0  0  0  0  0  0  0  0  0  0
    8.3326    2.1734    5.3207 H   0  0  0  0  0  0  0  0  0  0  0  0
    6.6779   -3.2135    6.1150 H   0  0  0  0  0  0  0  0  0  0  0  0
    7.0541   -3.3378    4.3668 H   0  0  0  0  0  0  0  0  0  0  0  0
    4.2536   -3.7539    5.6065 H   0  0  0  0  0  0  0  0  0  0  0  0
    5.3406   -5.0580    5.0572 H   0  0  0  0  0  0  0  0  0  0  0  0
    4.6672   -3.9085    3.8721 H   0  0  0  0  0  0  0  0  0  0  0  0
  1  2  1  0
  1 36  1  0
  1 37  1  0
  1 38  1  0
  2  3  1  0
  2 39  1  0
  2 40  1  0
  3  4  1  0
  4  5  2  0
  4  6  1  0
  6  7  1  0
  6 30  2  0
  7  8  1  0
  7 21  2  0
  8  9  2  0
  8 19  1  0
  9 10  1  0
  9 41  1  0
 10 11  2  0
 10 17  1  0
 11 12  1  0
 11 42  1  0
 12 13  1  0
 12 15  2  0
 13 14  1  0
 14 43  1  0
 14 44  1  0
 14 45  1  0
 15 16  1  0
 15 46  1  0
 16 17  2  0
 16 47  1  0
 17 18  1  0
 18 19  1  0
 19 20  2  0
 21 22  1  0
 22 23  1  0
 22 30  1  0
 23 24  2  0
 23 29  1  0
 24 25  1  0
 24 48  1  0
 25 26  2  0
 25 49  1  0
 26 27  1  0
 26 50  1  0
 27 28  1  0
 27 29  2  0
 29 51  1  0
 30 31  1  0
 31 32  2  0
 31 33  1  0
 33 34  1  0
 34 35  1  0
 34 52  1  0
 34 53  1  0
 35 54  1  0
 35 55  1  0
 35 56  1  0
M  END

