
     RDKit          3D

 34 34  0  0  0  0  0  0  0  0999 V2000
    1.9909    0.1972    1.9872 C   0  0  0  0  0  0  0  0  0  0  0  0
    2.9018    0.3622    1.0221 C   0  0  0  0  0  0  0  0  0  0  0  0
    3.2387    1.7207    0.5174 C   0  0  0  0  0  0  0  0  0  0  0  0
    2.7493    2.7515    0.9095 O   0  0  0  0  0  0  0  0  0  0  0  0
    4.1834    1.6179   -0.4534 O   0  0  0  0  0  0  0  0  0  0  0  0
    4.7541    2.6659   -1.1600 C   0  0  0  0  0  0  0  0  0  0  0  0
    4.4234    4.0203   -1.0315 C   0  0  0  0  0  0  0  0  0  0  0  0
    5.0934    4.9541   -1.8291 C   0  0  0  0  0  0  0  0  0  0  0  0
    6.0862    4.5856   -2.7496 C   0  0  0  0  0  0  0  0  0  0  0  0
    6.7996    5.6178   -3.5956 C   0  0  0  0  0  0  0  0  0  0  0  0
    8.1079    6.2428   -3.0129 C   0  0  1  0  0  0  0  0  0  0  0  0
    9.1739    5.1591   -2.7724 C   0  0  0  0  0  0  0  0  0  0  0  0
    8.6392    7.2509   -4.0495 C   0  0  0  0  0  0  0  0  0  0  0  0
    7.8227    6.9808   -1.6929 C   0  0  0  0  0  0  0  0  0  0  0  0
    6.3853    3.2160   -2.8606 C   0  0  0  0  0  0  0  0  0  0  0  0
    5.7328    2.2660   -2.0784 C   0  0  0  0  0  0  0  0  0  0  0  0
    1.7340   -0.7946    2.3672 H   0  0  0  0  0  0  0  0  0  0  0  0
    1.4821    1.0649    2.4171 H   0  0  0  0  0  0  0  0  0  0  0  0
    3.4311   -0.4788    0.5678 H   0  0  0  0  0  0  0  0  0  0  0  0
    3.6580    4.3339   -0.3277 H   0  0  0  0  0  0  0  0  0  0  0  0
    4.8205    6.0083   -1.7303 H   0  0  0  0  0  0  0  0  0  0  0  0
    6.1016    6.4449   -3.8105 H   0  0  0  0  0  0  0  0  0  0  0  0
    7.0510    5.1663   -4.5705 H   0  0  0  0  0  0  0  0  0  0  0  0
    9.4089    4.6133   -3.7017 H   0  0  0  0  0  0  0  0  0  0  0  0
    8.8455    4.4233   -2.0221 H   0  0  0  0  0  0  0  0  0  0  0  0
   10.1105    5.6119   -2.4077 H   0  0  0  0  0  0  0  0  0  0  0  0
    8.8623    6.7579   -5.0103 H   0  0  0  0  0  0  0  0  0  0  0  0
    9.5669    7.7296   -3.6955 H   0  0  0  0  0  0  0  0  0  0  0  0
    7.9042    8.0491   -4.2453 H   0  0  0  0  0  0  0  0  0  0  0  0
    7.4552    6.2956   -0.9135 H   0  0  0  0  0  0  0  0  0  0  0  0
    7.0674    7.7727   -1.8305 H   0  0  0  0  0  0  0  0  0  0  0  0
    8.7397    7.4594   -1.3114 H   0  0  0  0  0  0  0  0  0  0  0  0
    7.1383    2.8840   -3.5801 H   0  0  0  0  0  0  0  0  0  0  0  0
    5.9638    1.2028   -2.1688 H   0  0  0  0  0  0  0  0  0  0  0  0
  1  2  2  0
  1 17  1  0
  1 18  1  0
  2  3  1  0
  2 19  1  0
  3  4  2  0
  3  5  1  0
  5  6  1  0
  6  7  2  0
  6 16  1  0
  7  8  1  0
  7 20  1  0
  8  9  2  0
  8 21  1  0
  9 10  1  0
  9 15  1  0
 11 10  1  6
 10 22  1  0
 10 23  1  0
 11 12  1  0
 11 13  1  0
 11 14  1  0
 12 24  1  0
 12 25  1  0
 12 26  1  0
 13 27  1  0
 13 28  1  0
 13 29  1  0
 14 30  1  0
 14 31  1  0
 14 32  1  0
 15 16  2  0
 15 33  1  0
 16 34  1  0
M  END

