
     RDKit          3D

 59 62  0  0  0  0  0  0  0  0999 V2000
    3.5339   -1.4491   -2.8500 C   0  0  0  0  0  0  0  0  0  0  0  0
    3.5613   -0.6355   -1.5734 C   0  0  0  0  0  0  0  0  0  0  0  0
    4.2839    0.5654   -1.5322 C   0  0  0  0  0  0  0  0  0  0  0  0
    4.3020    1.3757   -0.3987 C   0  0  0  0  0  0  0  0  0  0  0  0
    3.5832    1.0363    0.7614 C   0  0  0  0  0  0  0  0  0  0  0  0
    3.5808    1.9741    1.9829 C   0  0  1  0  0  0  0  0  0  0  0  0
    2.9885    3.3405    1.5650 C   0  0  0  0  0  0  0  0  0  0  0  0
    2.7298    1.4147    3.1371 C   0  0  0  0  0  0  0  0  0  0  0  0
    5.0281    2.1695    2.4890 C   0  0  0  0  0  0  0  0  0  0  0  0
    2.8648   -0.1624    0.7265 C   0  0  0  0  0  0  0  0  0  0  0  0
    2.8491   -0.9978   -0.4051 C   0  0  0  0  0  0  0  0  0  0  0  0
    2.0926   -2.2710   -0.3370 C   0  0  0  0  0  0  0  0  0  0  0  0
    2.7661   -3.3940   -0.6813 O   0  0  0  0  0  0  0  0  0  0  0  0
    0.7855   -2.4178    0.0212 C   0  0  0  0  0  0  0  0  0  0  0  0
   -0.2045   -1.3659    0.2465 C   0  0  0  0  0  0  0  0  0  0  0  0
   -0.0870   -0.1661    0.3766 O   0  0  0  0  0  0  0  0  0  0  0  0
   -1.5746   -2.0699    0.2676 C   0  0  0  0  0  0  0  0  0  0  0  0
   -2.6373   -1.4985    0.3697 O   0  0  0  0  0  0  0  0  0  0  0  0
   -1.3419   -3.4323    0.1349 N   0  0  0  0  0  0  0  0  0  0  0  0
   -2.3389   -4.4311    0.0107 C   0  0  0  0  0  0  0  0  0  0  0  0
   -3.7066   -4.1329    0.1891 C   0  0  0  0  0  0  0  0  0  0  0  0
   -4.6732   -5.1270    0.0446 C   0  0  0  0  0  0  0  0  0  0  0  0
   -4.2986   -6.4336   -0.2765 C   0  0  0  0  0  0  0  0  0  0  0  0
   -5.5157   -7.6770   -0.4539 Cl  0  0  0  0  0  0  0  0  0  0  0  0
   -2.9506   -6.7480   -0.4534 C   0  0  0  0  0  0  0  0  0  0  0  0
   -1.9812   -5.7555   -0.3103 C   0  0  0  0  0  0  0  0  0  0  0  0
    0.0954   -3.7712    0.0984 C   0  0  2  0  0  0  0  0  0  0  0  0
    0.5470   -4.5876    1.3121 C   0  0  0  0  0  0  0  0  0  0  0  0
    1.4520   -5.6463    1.1570 C   0  0  0  0  0  0  0  0  0  0  0  0
    1.9088   -6.3730    2.2595 C   0  0  0  0  0  0  0  0  0  0  0  0
    1.4466   -6.0305    3.5274 C   0  0  0  0  0  0  0  0  0  0  0  0
    1.8766   -6.7237    4.5911 F   0  0  0  0  0  0  0  0  0  0  0  0
    0.5435   -4.9857    3.7153 C   0  0  0  0  0  0  0  0  0  0  0  0
    0.0998   -4.2688    2.6031 C   0  0  0  0  0  0  0  0  0  0  0  0
    3.7607   -0.8084   -3.7145 H   0  0  0  0  0  0  0  0  0  0  0  0
    2.5528   -1.9152   -3.0250 H   0  0  0  0  0  0  0  0  0  0  0  0
    4.2850   -2.2590   -2.8547 H   0  0  0  0  0  0  0  0  0  0  0  0
    4.8333    0.8825   -2.4231 H   0  0  0  0  0  0  0  0  0  0  0  0
    4.8795    2.3025   -0.4318 H   0  0  0  0  0  0  0  0  0  0  0  0
    1.9569    3.2253    1.1974 H   0  0  0  0  0  0  0  0  0  0  0  0
    3.5789    3.8191    0.7684 H   0  0  0  0  0  0  0  0  0  0  0  0
    2.9710    4.0294    2.4254 H   0  0  0  0  0  0  0  0  0  0  0  0
    1.6799    1.2728    2.8381 H   0  0  0  0  0  0  0  0  0  0  0  0
    2.7430    2.1188    3.9837 H   0  0  0  0  0  0  0  0  0  0  0  0
    3.1175    0.4512    3.5046 H   0  0  0  0  0  0  0  0  0  0  0  0
    5.6800    2.6080    1.7177 H   0  0  0  0  0  0  0  0  0  0  0  0
    5.4727    1.2101    2.7989 H   0  0  0  0  0  0  0  0  0  0  0  0
    5.0421    2.8466    3.3586 H   0  0  0  0  0  0  0  0  0  0  0  0
    2.2883   -0.4799    1.5918 H   0  0  0  0  0  0  0  0  0  0  0  0
    3.7059   -3.1857   -0.7831 H   0  0  0  0  0  0  0  0  0  0  0  0
   -4.0036   -3.1160    0.4304 H   0  0  0  0  0  0  0  0  0  0  0  0
   -5.7279   -4.8834    0.1837 H   0  0  0  0  0  0  0  0  0  0  0  0
   -2.6568   -7.7693   -0.7009 H   0  0  0  0  0  0  0  0  0  0  0  0
   -0.9391   -6.0371   -0.4463 H   0  0  0  0  0  0  0  0  0  0  0  0
    0.3128   -4.3520   -0.8126 H   0  0  0  0  0  0  0  0  0  0  0  0
    1.8137   -5.9047    0.1589 H   0  0  0  0  0  0  0  0  0  0  0  0
    2.6114   -7.2013    2.1497 H   0  0  0  0  0  0  0  0  0  0  0  0
    0.1973   -4.7501    4.7234 H   0  0  0  0  0  0  0  0  0  0  0  0
   -0.6147   -3.4551    2.7492 H   0  0  0  0  0  0  0  0  0  0  0  0
  1  2  1  0
  1 35  1  0
  1 36  1  0
  1 37  1  0
  2  3  2  0
  2 11  1  0
  3  4  1  0
  3 38  1  0
  4  5  2  0
  4 39  1  0
  5  6  1  0
  5 10  1  0
  6  7  1  6
  6  8  1  0
  6  9  1  0
  7 40  1  0
  7 41  1  0
  7 42  1  0
  8 43  1  0
  8 44  1  0
  8 45  1  0
  9 46  1  0
  9 47  1  0
  9 48  1  0
 10 11  2  0
 10 49  1  0
 11 12  1  0
 12 13  1  0
 12 14  2  0
 13 50  1  0
 14 15  1  0
 14 27  1  0
 15 16  2  0
 15 17  1  0
 17 18  2  0
 17 19  1  0
 19 20  1  0
 19 27  1  0
 20 21  2  0
 20 26  1  0
 21 22  1  0
 21 51  1  0
 22 23  2  0
 22 52  1  0
 23 24  1  0
 23 25  1  0
 25 26  2  0
 25 53  1  0
 26 54  1  0
 27 28  1  0
 27 55  1  6
 28 29  2  0
 28 34  1  0
 29 30  1  0
 29 56  1  0
 30 31  2  0
 30 57  1  0
 31 32  1  0
 31 33  1  0
 33 34  2  0
 33 58  1  0
 34 59  1  0
M  END

