
     RDKit          3D

 39 40  0  0  0  0  0  0  0  0999 V2000
    0.7990   -0.2396   -0.0073 C   0  0  0  0  0  0  0  0  0  0  0  0
    2.3102    0.0009   -0.0588 C   0  0  1  0  0  0  0  0  0  0  0  0
    3.1038   -1.2378   -0.4934 C   0  0  0  0  0  0  0  0  0  0  0  0
    2.8939   -1.5122   -1.9097 N   0  0  0  0  0  0  0  0  0  0  0  0
    3.4934   -2.7689   -2.3377 C   0  0  0  0  0  0  0  0  0  0  0  0
    2.9160   -3.2873   -3.6546 C   0  0  0  0  0  0  0  0  0  0  0  0
    3.3638   -4.7062   -3.9788 C   0  0  0  0  0  0  0  0  0  0  0  0
    4.0835   -5.3247   -3.2165 O   0  0  0  0  0  0  0  0  0  0  0  0
    2.8947   -5.3351   -5.2601 C   0  0  0  0  0  0  0  0  0  0  0  0
    3.3378   -6.6380   -5.5544 C   0  0  0  0  0  0  0  0  0  0  0  0
    2.9420   -7.2838   -6.7219 C   0  0  0  0  0  0  0  0  0  0  0  0
    2.0905   -6.6145   -7.6025 C   0  0  0  0  0  0  0  0  0  0  0  0
    1.7050   -7.2275   -8.7267 F   0  0  0  0  0  0  0  0  0  0  0  0
    1.6304   -5.3247   -7.3425 C   0  0  0  0  0  0  0  0  0  0  0  0
    2.0372   -4.6897   -6.1684 C   0  0  0  0  0  0  0  0  0  0  0  0
    3.3007   -0.3588   -2.7025 C   0  0  0  0  0  0  0  0  0  0  0  0
    2.5279    0.8936   -2.2779 C   0  0  2  0  0  0  0  0  0  0  0  0
    3.0168    2.1528   -2.9757 C   0  0  0  0  0  0  0  0  0  0  0  0
    2.6589    1.1130   -0.8799 O   0  0  0  0  0  0  0  0  0  0  0  0
    0.5525   -0.9363    0.8100 H   0  0  0  0  0  0  0  0  0  0  0  0
    0.4251   -0.6790   -0.9436 H   0  0  0  0  0  0  0  0  0  0  0  0
    0.2727    0.7092    0.1787 H   0  0  0  0  0  0  0  0  0  0  0  0
    2.6540    0.2883    0.9486 H   0  0  0  0  0  0  0  0  0  0  0  0
    2.7806   -2.1109    0.0962 H   0  0  0  0  0  0  0  0  0  0  0  0
    4.1816   -1.0662   -0.2675 H   0  0  0  0  0  0  0  0  0  0  0  0
    3.3035   -3.5244   -1.5610 H   0  0  0  0  0  0  0  0  0  0  0  0
    4.6011   -2.6978   -2.4195 H   0  0  0  0  0  0  0  0  0  0  0  0
    3.1884   -2.6373   -4.5036 H   0  0  0  0  0  0  0  0  0  0  0  0
    1.8130   -3.2603   -3.6024 H   0  0  0  0  0  0  0  0  0  0  0  0
    4.0013   -7.1278   -4.8394 H   0  0  0  0  0  0  0  0  0  0  0  0
    3.2776   -8.2938   -6.9654 H   0  0  0  0  0  0  0  0  0  0  0  0
    0.9642   -4.8390   -8.0579 H   0  0  0  0  0  0  0  0  0  0  0  0
    1.6731   -3.6809   -5.9670 H   0  0  0  0  0  0  0  0  0  0  0  0
    3.1045   -0.5493   -3.7694 H   0  0  0  0  0  0  0  0  0  0  0  0
    4.3945   -0.1613   -2.5976 H   0  0  0  0  0  0  0  0  0  0  0  0
    1.4611    0.7296   -2.5315 H   0  0  0  0  0  0  0  0  0  0  0  0
    4.0780    2.3345   -2.7435 H   0  0  0  0  0  0  0  0  0  0  0  0
    2.4393    3.0229   -2.6298 H   0  0  0  0  0  0  0  0  0  0  0  0
    2.9026    2.0687   -4.0680 H   0  0  0  0  0  0  0  0  0  0  0  0
  1  2  1  0
  1 20  1  0
  1 21  1  0
  1 22  1  0
  2  3  1  0
  2 19  1  0
  2 23  1  1
  3  4  1  0
  3 24  1  0
  3 25  1  0
  4  5  1  0
  4 16  1  0
  5  6  1  0
  5 26  1  0
  5 27  1  0
  6  7  1  0
  6 28  1  0
  6 29  1  0
  7  8  2  0
  7  9  1  0
  9 10  2  0
  9 15  1  0
 10 11  1  0
 10 30  1  0
 11 12  2  0
 11 31  1  0
 12 13  1  0
 12 14  1  0
 14 15  2  0
 14 32  1  0
 15 33  1  0
 16 17  1  0
 16 34  1  0
 16 35  1  0
 17 18  1  0
 17 19  1  0
 17 36  1  1
 18 37  1  0
 18 38  1  0
 18 39  1  0
M  END

