
     RDKit          3D

 39 40  0  0  0  0  0  0  0  0999 V2000
    5.8656    0.5090   -2.6100 C   0  0  0  0  0  0  0  0  0  0  0  0
    5.0141    0.7447   -1.4542 N   0  0  0  0  0  0  0  0  0  0  0  0
    3.5879    0.8989   -1.6987 C   0  0  0  0  0  0  0  0  0  0  0  0
    2.7829   -0.3962   -1.5193 C   0  0  0  0  0  0  0  0  0  0  0  0
    1.3050   -0.2003   -1.8254 C   0  0  0  0  0  0  0  0  0  0  0  0
    0.8385    0.8244   -2.2436 O   0  0  0  0  0  0  0  0  0  0  0  0
    0.5153   -1.2732   -1.6019 O   0  0  0  0  0  0  0  0  0  0  0  0
    5.5677    0.5895   -0.1933 C   0  0  0  0  0  0  0  0  0  0  0  0
    6.7305    0.2561   -0.0144 O   0  0  0  0  0  0  0  0  0  0  0  0
    4.6937    0.8123    0.8642 N   0  0  0  0  0  0  0  0  0  0  0  0
    5.1079    0.8571    2.2290 C   0  0  0  0  0  0  0  0  0  0  0  0
    5.2410    2.1065    2.8452 C   0  0  0  0  0  0  0  0  0  0  0  0
    5.4964    2.1890    4.2118 C   0  0  0  0  0  0  0  0  0  0  0  0
    5.5973    0.9896    4.9207 C   0  0  0  0  0  0  0  0  0  0  0  0
    5.4921   -0.2054    4.3485 N   0  0  0  0  0  0  0  0  0  0  0  0
    5.2700   -0.3077    3.0253 C   0  0  0  0  0  0  0  0  0  0  0  0
    5.1578   -1.6869    2.5210 C   0  0  0  0  0  0  0  0  0  0  0  0
    4.5967   -2.7832    3.2367 C   0  0  0  0  0  0  0  0  0  0  0  0
    4.6890   -3.9171    2.5565 N   0  0  0  0  0  0  0  0  0  0  0  0
    5.3212   -3.5905    1.4139 N   0  0  0  0  0  0  0  0  0  0  0  0
    5.6646   -4.6290    0.4663 C   0  0  0  0  0  0  0  0  0  0  0  0
    5.6235   -2.2683    1.3443 C   0  0  0  0  0  0  0  0  0  0  0  0
    5.5970   -0.4260   -3.1363 H   0  0  0  0  0  0  0  0  0  0  0  0
    6.9034    0.4265   -2.2683 H   0  0  0  0  0  0  0  0  0  0  0  0
    5.7814    1.3421   -3.3275 H   0  0  0  0  0  0  0  0  0  0  0  0
    3.4548    1.2661   -2.7259 H   0  0  0  0  0  0  0  0  0  0  0  0
    3.1525    1.6922   -1.0684 H   0  0  0  0  0  0  0  0  0  0  0  0
    2.8981   -0.7765   -0.4894 H   0  0  0  0  0  0  0  0  0  0  0  0
    3.1772   -1.1846   -2.1854 H   0  0  0  0  0  0  0  0  0  0  0  0
    1.0285   -2.0111   -1.2418 H   0  0  0  0  0  0  0  0  0  0  0  0
    3.8666    1.3637    0.6672 H   0  0  0  0  0  0  0  0  0  0  0  0
    5.1311    3.0111    2.2407 H   0  0  0  0  0  0  0  0  0  0  0  0
    5.6044    3.1526    4.7141 H   0  0  0  0  0  0  0  0  0  0  0  0
    5.7677    0.9983    6.0043 H   0  0  0  0  0  0  0  0  0  0  0  0
    4.1290   -2.7573    4.2199 H   0  0  0  0  0  0  0  0  0  0  0  0
    4.7658   -5.2011    0.1915 H   0  0  0  0  0  0  0  0  0  0  0  0
    6.3997   -5.3240    0.9016 H   0  0  0  0  0  0  0  0  0  0  0  0
    6.0944   -4.1692   -0.4336 H   0  0  0  0  0  0  0  0  0  0  0  0
    6.1993   -1.8390    0.5279 H   0  0  0  0  0  0  0  0  0  0  0  0
  1  2  1  0
  1 23  1  0
  1 24  1  0
  1 25  1  0
  2  3  1  0
  2  8  1  0
  3  4  1  0
  3 26  1  0
  3 27  1  0
  4  5  1  0
  4 28  1  0
  4 29  1  0
  5  6  2  0
  5  7  1  0
  7 30  1  0
  8  9  2  0
  8 10  1  0
 10 11  1  0
 10 31  1  0
 11 12  2  0
 11 16  1  0
 12 13  1  0
 12 32  1  0
 13 14  2  0
 13 33  1  0
 14 15  1  0
 14 34  1  0
 15 16  2  0
 16 17  1  0
 17 18  1  0
 17 22  2  0
 18 19  2  0
 18 35  1  0
 19 20  1  0
 20 21  1  0
 20 22  1  0
 21 36  1  0
 21 37  1  0
 21 38  1  0
 22 39  1  0
M  END

