
     RDKit          3D

 61 63  0  0  0  0  0  0  0  0999 V2000
    1.4822    1.6322    5.3837 C   0  0  0  0  0  0  0  0  0  0  0  0
    2.5402    0.5664    5.1699 C   0  0  0  0  0  0  0  0  0  0  0  0
    3.4488    0.4204    5.9600 O   0  0  0  0  0  0  0  0  0  0  0  0
    2.4410   -0.3131    3.9502 C   0  0  0  0  0  0  0  0  0  0  0  0
    1.3910   -0.1848    3.0228 C   0  0  0  0  0  0  0  0  0  0  0  0
    1.3212   -1.0174    1.9062 C   0  0  0  0  0  0  0  0  0  0  0  0
    2.2972   -1.9888    1.6778 C   0  0  0  0  0  0  0  0  0  0  0  0
    3.3592   -2.1465    2.5838 C   0  0  0  0  0  0  0  0  0  0  0  0
    4.3666   -3.0219    2.4330 O   0  0  0  0  0  0  0  0  0  0  0  0
    4.1554   -4.4021    1.9462 C   0  0  1  0  0  0  0  0  0  0  0  0
    4.8430   -4.5163    0.5774 C   0  0  0  0  0  0  0  0  0  0  0  0
    4.8249   -5.9180   -0.0385 C   0  0  0  0  0  0  0  0  0  0  0  0
    3.4304   -6.4980   -0.2870 C   0  0  0  0  0  0  0  0  0  0  0  0
    3.4743   -7.7387   -1.1828 C   0  0  0  0  0  0  0  0  0  0  0  0
    2.5091   -8.6715   -0.9317 N   0  0  0  0  0  0  0  0  0  0  0  0
    4.2914   -7.8721   -2.0750 O   0  0  0  0  0  0  0  0  0  0  0  0
    4.5069   -5.3559    2.9502 N   0  0  0  0  0  0  0  0  0  0  0  0
    3.3911   -5.6872    3.8504 C   0  0  0  0  0  0  0  0  0  0  0  0
    3.6177   -7.0317    4.5347 C   0  0  0  0  0  0  0  0  0  0  0  0
    4.9319   -7.0156    5.3106 C   0  0  0  0  0  0  0  0  0  0  0  0
    6.1005   -6.5501    4.4327 C   0  0  2  0  0  0  0  0  0  0  0  0
    7.3931   -6.4439    5.2588 C   0  0  0  0  0  0  0  0  0  0  0  0
    8.5846   -5.9472    4.4382 C   0  0  0  0  0  0  0  0  0  0  0  0
    8.2455   -4.6213    3.7550 C   0  0  0  0  0  0  0  0  0  0  0  0
    6.9800   -4.7334    2.8950 C   0  0  0  0  0  0  0  0  0  0  0  0
    5.7752   -5.2128    3.7182 C   0  0  1  0  0  0  0  0  0  0  0  0
    3.4035   -1.3048    3.7110 C   0  0  0  0  0  0  0  0  0  0  0  0
    4.5369   -1.5708    4.6303 N   0  0  0  0  0  0  0  0  0  0  0  0
    5.5827   -1.0027    4.3992 O   0  0  0  0  0  0  0  0  0  0  0  0
    4.3459   -2.4109    5.4919 O   0  0  0  0  0  0  0  0  0  0  0  0
    1.7193    2.1717    6.3090 H   0  0  0  0  0  0  0  0  0  0  0  0
    0.4788    1.1851    5.4689 H   0  0  0  0  0  0  0  0  0  0  0  0
    1.4573    2.3428    4.5422 H   0  0  0  0  0  0  0  0  0  0  0  0
    0.6233    0.5741    3.1736 H   0  0  0  0  0  0  0  0  0  0  0  0
    0.5026   -0.9005    1.1922 H   0  0  0  0  0  0  0  0  0  0  0  0
    2.2533   -2.6134    0.7840 H   0  0  0  0  0  0  0  0  0  0  0  0
    3.0727   -4.5137    1.7863 H   0  0  0  0  0  0  0  0  0  0  0  0
    5.8773   -4.1590    0.6423 H   0  0  0  0  0  0  0  0  0  0  0  0
    4.3257   -3.8088   -0.0952 H   0  0  0  0  0  0  0  0  0  0  0  0
    5.3898   -6.6091    0.6070 H   0  0  0  0  0  0  0  0  0  0  0  0
    5.3503   -5.8926   -1.0054 H   0  0  0  0  0  0  0  0  0  0  0  0
    2.8022   -5.7558   -0.8159 H   0  0  0  0  0  0  0  0  0  0  0  0
    2.9162   -6.7291    0.6606 H   0  0  0  0  0  0  0  0  0  0  0  0
    1.8439   -8.5778   -0.1768 H   0  0  0  0  0  0  0  0  0  0  0  0
    2.4747   -9.4973   -1.5181 H   0  0  0  0  0  0  0  0  0  0  0  0
    2.4639   -5.7255    3.2566 H   0  0  0  0  0  0  0  0  0  0  0  0
    3.2537   -4.8972    4.6190 H   0  0  0  0  0  0  0  0  0  0  0  0
    3.6438   -7.8232    3.7652 H   0  0  0  0  0  0  0  0  0  0  0  0
    2.7690   -7.2527    5.2039 H   0  0  0  0  0  0  0  0  0  0  0  0
    5.1514   -8.0111    5.7329 H   0  0  0  0  0  0  0  0  0  0  0  0
    4.8370   -6.3258    6.1691 H   0  0  0  0  0  0  0  0  0  0  0  0
    6.2566   -7.3023    3.6353 H   0  0  0  0  0  0  0  0  0  0  0  0
    7.6138   -7.4262    5.7107 H   0  0  0  0  0  0  0  0  0  0  0  0
    7.2196   -5.7493    6.1015 H   0  0  0  0  0  0  0  0  0  0  0  0
    8.8449   -6.6998    3.6711 H   0  0  0  0  0  0  0  0  0  0  0  0
    9.4738   -5.8367    5.0814 H   0  0  0  0  0  0  0  0  0  0  0  0
    9.0854   -4.2801    3.1272 H   0  0  0  0  0  0  0  0  0  0  0  0
    8.0928   -3.8392    4.5204 H   0  0  0  0  0  0  0  0  0  0  0  0
    7.1664   -5.4374    2.0649 H   0  0  0  0  0  0  0  0  0  0  0  0
    6.7638   -3.7487    2.4601 H   0  0  0  0  0  0  0  0  0  0  0  0
    5.6084   -4.4522    4.5097 H   0  0  0  0  0  0  0  0  0  0  0  0
  1  2  1  0
  1 31  1  0
  1 32  1  0
  1 33  1  0
  2  3  2  0
  2  4  1  0
  4  5  2  0
  4 27  1  0
  5  6  1  0
  5 34  1  0
  6  7  2  0
  6 35  1  0
  7  8  1  0
  7 36  1  0
  8  9  1  0
  8 27  2  0
  9 10  1  0
 10 11  1  0
 10 17  1  0
 10 37  1  6
 11 12  1  0
 11 38  1  0
 11 39  1  0
 12 13  1  0
 12 40  1  0
 12 41  1  0
 13 14  1  0
 13 42  1  0
 13 43  1  0
 14 15  1  0
 14 16  2  0
 15 44  1  0
 15 45  1  0
 17 18  1  0
 17 26  1  0
 18 19  1  0
 18 46  1  0
 18 47  1  0
 19 20  1  0
 19 48  1  0
 19 49  1  0
 20 21  1  0
 20 50  1  0
 20 51  1  0
 21 22  1  0
 21 26  1  0
 21 52  1  6
 22 23  1  0
 22 53  1  0
 22 54  1  0
 23 24  1  0
 23 55  1  0
 23 56  1  0
 24 25  1  0
 24 57  1  0
 24 58  1  0
 25 26  1  0
 25 59  1  0
 25 60  1  0
 26 61  1  1
 27 28  1  0
 28 29  2  0
 28 30  1  0
M  CHG  2  28   1  30  -1
M  END

