
     RDKit          3D

 55 58  0  0  0  0  0  0  0  0999 V2000
    2.4403    1.2234    0.5631 C   0  0  0  0  0  0  0  0  0  0  0  0
    3.5814    0.3736    0.0594 C   0  0  0  0  0  0  0  0  0  0  0  0
    4.8158    0.9710   -0.2321 C   0  0  0  0  0  0  0  0  0  0  0  0
    5.9368    0.2238   -0.6010 C   0  0  0  0  0  0  0  0  0  0  0  0
    5.8280   -1.1655   -0.6775 C   0  0  0  0  0  0  0  0  0  0  0  0
    4.6045   -1.7843   -0.4185 C   0  0  0  0  0  0  0  0  0  0  0  0
    3.4606   -1.0398   -0.0617 C   0  0  0  0  0  0  0  0  0  0  0  0
    2.2318   -1.6701    0.2306 N   0  0  0  0  0  0  0  0  0  0  0  0
    1.0384   -1.3618   -0.5588 C   0  0  0  0  0  0  0  0  0  0  0  0
    0.7423   -2.4648   -1.5936 C   0  0  0  0  0  0  0  0  0  0  0  0
    0.6584   -3.8012   -1.0102 N   0  0  0  0  0  0  0  0  0  0  0  0
   -0.6200   -4.1400   -0.3899 C   0  0  0  0  0  0  0  0  0  0  0  0
   -1.6948   -4.5470   -1.4088 C   0  0  0  0  0  0  0  0  0  0  0  0
   -1.3404   -5.8055   -2.2021 C   0  0  0  0  0  0  0  0  0  0  0  0
   -2.3742   -6.1582   -3.2616 C   0  0  0  0  0  0  0  0  0  0  0  0
   -1.9506   -7.3402   -3.9148 O   0  0  0  0  0  0  0  0  0  0  0  0
   -2.7899   -7.8776   -4.9339 C   0  0  1  0  0  0  0  0  0  0  0  0
   -4.1263   -8.3366   -4.3579 C   0  0  0  0  0  0  0  0  0  0  0  0
   -5.1964   -7.6323   -4.7229 C   0  0  0  0  0  0  0  0  0  0  0  0
   -6.6142   -7.4847   -4.4732 N   0  0  0  0  0  0  0  0  0  0  0  0
   -6.6343   -6.4489   -5.2819 C   0  0  0  0  0  0  0  0  0  0  0  0
   -5.2023   -6.4921   -5.6563 C   0  0  0  0  0  0  0  0  0  0  0  0
   -4.1337   -6.0882   -6.3469 C   0  0  0  0  0  0  0  0  0  0  0  0
   -2.8846   -6.9334   -6.1826 C   0  0  0  0  0  0  0  0  0  0  0  0
    1.8606   -4.0975   -0.2368 C   0  0  0  0  0  0  0  0  0  0  0  0
    2.1902   -3.0119    0.8041 C   0  0  0  0  0  0  0  0  0  0  0  0
    2.8177    2.1563    1.0076 H   0  0  0  0  0  0  0  0  0  0  0  0
    1.8596    0.6807    1.3250 H   0  0  0  0  0  0  0  0  0  0  0  0
    1.7321    1.5110   -0.2337 H   0  0  0  0  0  0  0  0  0  0  0  0
    4.9047    2.0571   -0.1321 H   0  0  0  0  0  0  0  0  0  0  0  0
    6.8867    0.7216   -0.8100 H   0  0  0  0  0  0  0  0  0  0  0  0
    6.6924   -1.7745   -0.9553 H   0  0  0  0  0  0  0  0  0  0  0  0
    4.5303   -2.8687   -0.5136 H   0  0  0  0  0  0  0  0  0  0  0  0
    1.1745   -0.4057   -1.0800 H   0  0  0  0  0  0  0  0  0  0  0  0
    0.1707   -1.2408    0.1186 H   0  0  0  0  0  0  0  0  0  0  0  0
    1.5497   -2.4633   -2.3489 H   0  0  0  0  0  0  0  0  0  0  0  0
   -0.1937   -2.2348   -2.1279 H   0  0  0  0  0  0  0  0  0  0  0  0
   -1.0257   -3.3246    0.2473 H   0  0  0  0  0  0  0  0  0  0  0  0
   -0.4456   -4.9916    0.2887 H   0  0  0  0  0  0  0  0  0  0  0  0
   -1.8808   -3.7075   -2.1034 H   0  0  0  0  0  0  0  0  0  0  0  0
   -2.6438   -4.6954   -0.8625 H   0  0  0  0  0  0  0  0  0  0  0  0
   -1.2364   -6.6666   -1.5185 H   0  0  0  0  0  0  0  0  0  0  0  0
   -0.3589   -5.6702   -2.6836 H   0  0  0  0  0  0  0  0  0  0  0  0
   -2.4741   -5.3217   -3.9836 H   0  0  0  0  0  0  0  0  0  0  0  0
   -3.3699   -6.2974   -2.7979 H   0  0  0  0  0  0  0  0  0  0  0  0
   -2.2276   -8.7676   -5.2575 H   0  0  0  0  0  0  0  0  0  0  0  0
   -4.1354   -9.1479   -3.6258 H   0  0  0  0  0  0  0  0  0  0  0  0
   -7.5024   -5.8265   -5.5248 H   0  0  0  0  0  0  0  0  0  0  0  0
   -4.1295   -5.2524   -7.0538 H   0  0  0  0  0  0  0  0  0  0  0  0
   -1.9775   -6.3062   -6.1798 H   0  0  0  0  0  0  0  0  0  0  0  0
   -2.7945   -7.5600   -7.0901 H   0  0  0  0  0  0  0  0  0  0  0  0
    2.7059   -4.1944   -0.9427 H   0  0  0  0  0  0  0  0  0  0  0  0
    1.7426   -5.0752    0.2581 H   0  0  0  0  0  0  0  0  0  0  0  0
    3.1448   -3.2232    1.3079 H   0  0  0  0  0  0  0  0  0  0  0  0
    1.4078   -3.0260    1.5891 H   0  0  0  0  0  0  0  0  0  0  0  0
  1  2  1  0
  1 27  1  0
  1 28  1  0
  1 29  1  0
  2  3  2  0
  2  7  1  0
  3  4  1  0
  3 30  1  0
  4  5  2  0
  4 31  1  0
  5  6  1  0
  5 32  1  0
  6  7  2  0
  6 33  1  0
  7  8  1  0
  8  9  1  0
  8 26  1  0
  9 10  1  0
  9 34  1  0
  9 35  1  0
 10 11  1  0
 10 36  1  0
 10 37  1  0
 11 12  1  0
 11 25  1  0
 12 13  1  0
 12 38  1  0
 12 39  1  0
 13 14  1  0
 13 40  1  0
 13 41  1  0
 14 15  1  0
 14 42  1  0
 14 43  1  0
 15 16  1  0
 15 44  1  0
 15 45  1  0
 16 17  1  0
 17 18  1  0
 17 24  1  0
 17 46  1  6
 18 19  2  0
 18 47  1  0
 19 20  1  0
 19 22  1  0
 20 21  2  0
 21 22  1  0
 21 48  1  0
 22 23  2  0
 23 24  1  0
 23 49  1  0
 24 50  1  0
 24 51  1  0
 25 26  1  0
 25 52  1  0
 25 53  1  0
 26 54  1  0
 26 55  1  0
M  END

