
     RDKit          3D

 25 25  0  0  0  0  0  0  0  0999 V2000
    0.8512    3.8587    1.3342 N   0  0  0  0  0  0  0  0  0  0  0  0
    2.2264    4.0450    1.1993 N   0  0  0  0  0  0  0  0  0  0  0  0
    3.1131    3.0321    1.2144 C   0  0  0  0  0  0  0  0  0  0  0  0
    2.8349    1.8472    1.3448 O   0  0  0  0  0  0  0  0  0  0  0  0
    4.5684    3.5204    1.0455 C   0  0  0  0  0  0  0  0  0  0  0  0
    4.8396    4.7031    0.9162 O   0  0  0  0  0  0  0  0  0  0  0  0
    5.4252    2.4662    1.0666 N   0  0  0  0  0  0  0  0  0  0  0  0
    6.8211    2.4511    0.9468 C   0  0  0  0  0  0  0  0  0  0  0  0
    7.5833    3.6200    0.7781 C   0  0  0  0  0  0  0  0  0  0  0  0
    8.9713    3.5267    0.6661 C   0  0  0  0  0  0  0  0  0  0  0  0
    9.6146    2.2873    0.7189 C   0  0  0  0  0  0  0  0  0  0  0  0
   11.1123    2.1740    0.6065 C   0  0  1  0  0  0  0  0  0  0  0  0
   11.6996    3.3634    0.3958 F   0  0  0  0  0  0  0  0  0  0  0  0
   11.6549    1.6518    1.7245 F   0  0  0  0  0  0  0  0  0  0  0  0
   11.4723    1.3623   -0.4074 F   0  0  0  0  0  0  0  0  0  0  0  0
    8.8530    1.1220    0.8865 C   0  0  0  0  0  0  0  0  0  0  0  0
    7.4704    1.2022    0.9995 C   0  0  0  0  0  0  0  0  0  0  0  0
    0.6757    3.3661    2.2137 H   0  0  0  0  0  0  0  0  0  0  0  0
    0.5362    3.2236    0.5965 H   0  0  0  0  0  0  0  0  0  0  0  0
    2.5742    4.9934    1.0843 H   0  0  0  0  0  0  0  0  0  0  0  0
    4.9429    1.5748    1.1878 H   0  0  0  0  0  0  0  0  0  0  0  0
    7.0830    4.5851    0.7362 H   0  0  0  0  0  0  0  0  0  0  0  0
    9.5603    4.4357    0.5346 H   0  0  0  0  0  0  0  0  0  0  0  0
    9.3438    0.1471    0.9275 H   0  0  0  0  0  0  0  0  0  0  0  0
    6.8804    0.2910    1.1297 H   0  0  0  0  0  0  0  0  0  0  0  0
  1  2  1  0
  1 18  1  0
  1 19  1  0
  2  3  1  0
  2 20  1  0
  3  4  2  0
  3  5  1  0
  5  6  2  0
  5  7  1  0
  7  8  1  0
  7 21  1  0
  8  9  2  0
  8 17  1  0
  9 10  1  0
  9 22  1  0
 10 11  2  0
 10 23  1  0
 11 12  1  0
 11 16  1  0
 12 13  1  6
 12 14  1  0
 12 15  1  0
 16 17  2  0
 16 24  1  0
 17 25  1  0
M  END

