
     RDKit          3D

 45 46  0  0  0  0  0  0  0  0999 V2000
    1.5319    0.9845    0.8143 C   0  0  0  0  0  0  0  0  0  0  0  0
    1.9598    0.1579   -0.2453 O   0  0  0  0  0  0  0  0  0  0  0  0
    2.5605    0.7117   -1.3189 C   0  0  0  0  0  0  0  0  0  0  0  0
    2.7856    2.0789   -1.4957 C   0  0  0  0  0  0  0  0  0  0  0  0
    3.4283    2.5949   -2.6379 C   0  0  0  0  0  0  0  0  0  0  0  0
    3.5722    3.9971   -2.8275 N   0  0  0  0  0  0  0  0  0  0  0  0
    2.6223    4.5603   -3.7882 C   0  0  0  0  0  0  0  0  0  0  0  0
    3.7269    4.8443   -1.6470 C   0  0  0  0  0  0  0  0  0  0  0  0
    4.9751    4.5249   -0.8148 C   0  0  0  0  0  0  0  0  0  0  0  0
    5.1284    5.4431    0.3072 N   0  0  0  0  0  0  0  0  0  0  0  0
    4.2773    5.1262    1.4371 C   0  0  0  0  0  0  0  0  0  0  0  0
    6.5108    5.6237    0.7086 C   0  0  0  0  0  0  0  0  0  0  0  0
    3.8753    1.6962   -3.6393 C   0  0  0  0  0  0  0  0  0  0  0  0
    4.6356    2.0284   -4.8346 C   0  0  0  0  0  0  0  0  0  0  0  0
    5.4149    3.0670   -5.2348 C   0  0  0  0  0  0  0  0  0  0  0  0
    5.8719    4.5764   -4.4245 S   0  0  0  0  0  0  0  0  0  0  0  0
    6.9916    5.0290   -5.7769 C   0  0  0  0  0  0  0  0  0  0  0  0
    7.6642    6.0250   -5.8085 O   0  0  0  0  0  0  0  0  0  0  0  0
    6.9339    4.0510   -6.7544 N   0  0  0  0  0  0  0  0  0  0  0  0
    6.1097    2.9472   -6.5567 C   0  0  0  0  0  0  0  0  0  0  0  0
    5.9987    2.0396   -7.3527 O   0  0  0  0  0  0  0  0  0  0  0  0
    3.5814    0.3173   -3.4674 C   0  0  0  0  0  0  0  0  0  0  0  0
    2.9566   -0.1906   -2.3405 C   0  0  0  0  0  0  0  0  0  0  0  0
    2.6995   -1.5079   -2.1429 O   0  0  0  0  0  0  0  0  0  0  0  0
    1.0974    0.3192    1.5720 H   0  0  0  0  0  0  0  0  0  0  0  0
    0.7611    1.7052    0.4865 H   0  0  0  0  0  0  0  0  0  0  0  0
    2.3729    1.5416    1.2649 H   0  0  0  0  0  0  0  0  0  0  0  0
    2.4332    2.7738   -0.7368 H   0  0  0  0  0  0  0  0  0  0  0  0
    2.5661    3.9292   -4.6848 H   0  0  0  0  0  0  0  0  0  0  0  0
    2.9580    5.5622   -4.0966 H   0  0  0  0  0  0  0  0  0  0  0  0
    1.6007    4.6455   -3.3617 H   0  0  0  0  0  0  0  0  0  0  0  0
    2.8147    4.8380   -1.0120 H   0  0  0  0  0  0  0  0  0  0  0  0
    3.8286    5.8807   -2.0028 H   0  0  0  0  0  0  0  0  0  0  0  0
    5.8482    4.6299   -1.4754 H   0  0  0  0  0  0  0  0  0  0  0  0
    4.9665    3.4635   -0.4819 H   0  0  0  0  0  0  0  0  0  0  0  0
    3.2217    5.0686    1.1305 H   0  0  0  0  0  0  0  0  0  0  0  0
    4.3517    5.9162    2.2016 H   0  0  0  0  0  0  0  0  0  0  0  0
    4.5411    4.1581    1.9268 H   0  0  0  0  0  0  0  0  0  0  0  0
    7.1168    5.9585   -0.1475 H   0  0  0  0  0  0  0  0  0  0  0  0
    6.9797    4.6972    1.1158 H   0  0  0  0  0  0  0  0  0  0  0  0
    6.5770    6.3976    1.4903 H   0  0  0  0  0  0  0  0  0  0  0  0
    4.6462    1.2287   -5.5852 H   0  0  0  0  0  0  0  0  0  0  0  0
    7.4865    4.1415   -7.6028 H   0  0  0  0  0  0  0  0  0  0  0  0
    3.8997   -0.3825   -4.2465 H   0  0  0  0  0  0  0  0  0  0  0  0
    3.0274   -2.0117   -2.8992 H   0  0  0  0  0  0  0  0  0  0  0  0
  1  2  1  0
  1 25  1  0
  1 26  1  0
  1 27  1  0
  2  3  1  0
  3  4  2  0
  3 23  1  0
  4  5  1  0
  4 28  1  0
  5  6  1  0
  5 13  2  0
  6  7  1  0
  6  8  1  0
  7 29  1  0
  7 30  1  0
  7 31  1  0
  8  9  1  0
  8 32  1  0
  8 33  1  0
  9 10  1  0
  9 34  1  0
  9 35  1  0
 10 11  1  0
 10 12  1  0
 11 36  1  0
 11 37  1  0
 11 38  1  0
 12 39  1  0
 12 40  1  0
 12 41  1  0
 13 14  1  0
 13 22  1  0
 14 15  2  0
 14 42  1  0
 15 16  1  0
 15 20  1  0
 16 17  2  0
 17 18  1  0
 17 19  1  0
 19 20  1  0
 19 43  1  0
 20 21  2  0
 22 23  2  0
 22 44  1  0
 23 24  1  0
 24 45  1  0
M  CHG  2  16   1  18  -1
M  END

