
     RDKit          3D

 27 28  0  0  0  0  0  0  0  0999 V2000
    5.0596    0.4951    1.1376 N   0  0  0  0  0  0  0  0  0  0  0  0
    4.6882   -0.8062    0.9561 C   0  0  0  0  0  0  0  0  0  0  0  0
    5.5004   -1.7018    0.8176 O   0  0  0  0  0  0  0  0  0  0  0  0
    3.1690   -1.0433    0.9712 C   0  0  2  0  0  0  0  0  0  0  0  0
    2.6941   -0.2810    0.3324 H   0  0  0  0  0  0  0  0  0  0  0  0
    2.6032   -0.9923    2.4141 C   0  0  0  0  0  0  0  0  0  0  0  0
    2.8152   -2.4169    2.9335 C   0  0  0  0  0  0  0  0  0  0  0  0
    2.6557   -3.2276    1.7321 N   0  0  0  0  0  0  0  0  0  0  0  0
    2.5239   -4.5876    1.7753 C   0  0  0  0  0  0  0  0  0  0  0  0
    2.4107   -5.3692    0.5933 C   0  0  0  0  0  0  0  0  0  0  0  0
    2.2671   -6.7440    0.7142 C   0  0  0  0  0  0  0  0  0  0  0  0
    2.2362   -7.3169    1.9915 C   0  0  0  0  0  0  0  0  0  0  0  0
    2.0583   -9.0442    2.2019 Cl  0  0  0  0  0  0  0  0  0  0  0  0
    2.3534   -6.4740    3.0986 C   0  0  0  0  0  0  0  0  0  0  0  0
    2.4946   -5.1555    2.9951 N   0  0  0  0  0  0  0  0  0  0  0  0
    2.8129   -2.4632    0.5012 C   0  0  0  0  0  0  0  0  0  0  0  0
    6.0486    0.7137    1.1667 H   0  0  0  0  0  0  0  0  0  0  0  0
    4.3900    1.2468    1.2285 H   0  0  0  0  0  0  0  0  0  0  0  0
    1.5273   -0.7574    2.3770 H   0  0  0  0  0  0  0  0  0  0  0  0
    3.0919   -0.2337    3.0434 H   0  0  0  0  0  0  0  0  0  0  0  0
    2.0895   -2.7130    3.7045 H   0  0  0  0  0  0  0  0  0  0  0  0
    3.8226   -2.5483    3.3718 H   0  0  0  0  0  0  0  0  0  0  0  0
    2.4346   -4.9086   -0.3942 H   0  0  0  0  0  0  0  0  0  0  0  0
    2.1789   -7.3755   -0.1723 H   0  0  0  0  0  0  0  0  0  0  0  0
    2.3337   -6.8979    4.1092 H   0  0  0  0  0  0  0  0  0  0  0  0
    1.8771   -2.4598   -0.0900 H   0  0  0  0  0  0  0  0  0  0  0  0
    3.6191   -2.8754   -0.1268 H   0  0  0  0  0  0  0  0  0  0  0  0
  1  2  1  0
  1 17  1  0
  1 18  1  0
  2  3  2  0
  2  4  1  0
  4  5  1  6
  4  6  1  0
  4 16  1  0
  6  7  1  0
  6 19  1  0
  6 20  1  0
  7  8  1  0
  7 21  1  0
  7 22  1  0
  8  9  1  0
  8 16  1  0
  9 10  2  0
  9 15  1  0
 10 11  1  0
 10 23  1  0
 11 12  2  0
 11 24  1  0
 12 13  1  0
 12 14  1  0
 14 15  2  0
 14 25  1  0
 16 26  1  0
 16 27  1  0
M  END

