
     RDKit          3D

 56 59  0  0  0  0  0  0  0  0999 V2000
   13.3143   -5.5939    0.3305 C   0  0  0  0  0  0  0  0  0  0  0  0
   12.2374   -6.6429    0.4753 C   0  0  0  0  0  0  0  0  0  0  0  0
   12.5240   -7.9113    0.9960 C   0  0  0  0  0  0  0  0  0  0  0  0
   11.5086   -8.8655    1.1216 C   0  0  0  0  0  0  0  0  0  0  0  0
   10.2076   -8.5655    0.7323 C   0  0  0  0  0  0  0  0  0  0  0  0
    9.9026   -7.2931    0.2068 C   0  0  0  0  0  0  0  0  0  0  0  0
    8.5604   -7.0856   -0.1661 N   0  0  0  0  0  0  0  0  0  0  0  0
    7.8826   -6.0123   -0.6436 C   0  0  0  0  0  0  0  0  0  0  0  0
    8.4073   -4.4547   -0.9398 S   0  0  0  0  0  0  0  0  0  0  0  0
    6.5480   -6.2989   -0.9010 N   0  0  0  0  0  0  0  0  0  0  0  0
    6.0252   -7.5239   -0.7487 N   0  0  0  0  0  0  0  0  0  0  0  0
    4.7626   -7.6838   -0.9586 C   0  0  0  0  0  0  0  0  0  0  0  0
    4.0395   -8.9501   -0.8308 C   0  0  0  0  0  0  0  0  0  0  0  0
    2.6488   -8.8719   -0.7052 C   0  0  0  0  0  0  0  0  0  0  0  0
    2.0493   -7.6246   -0.8087 O   0  0  0  0  0  0  0  0  0  0  0  0
    1.2786   -7.1356    0.2187 C   0  0  0  0  0  0  0  0  0  0  0  0
    1.1315   -7.7199    1.2596 O   0  0  0  0  0  0  0  0  0  0  0  0
    0.6821   -5.8135   -0.1201 C   0  0  0  0  0  0  0  0  0  0  0  0
   -0.0343   -5.1486    0.8861 C   0  0  0  0  0  0  0  0  0  0  0  0
   -0.6113   -3.9084    0.6138 C   0  0  0  0  0  0  0  0  0  0  0  0
   -0.4798   -3.3361   -0.6538 C   0  0  0  0  0  0  0  0  0  0  0  0
    0.2295   -3.9878   -1.6781 C   0  0  0  0  0  0  0  0  0  0  0  0
    0.3607   -3.3566   -3.0433 C   0  0  0  0  0  0  0  0  0  0  0  0
    0.8073   -5.2310   -1.3930 C   0  0  0  0  0  0  0  0  0  0  0  0
    1.8314  -10.0085   -0.5293 C   0  0  0  0  0  0  0  0  0  0  0  0
    2.4069  -11.2549   -0.4803 C   0  0  0  0  0  0  0  0  0  0  0  0
    3.8110  -11.4188   -0.6351 C   0  0  0  0  0  0  0  0  0  0  0  0
    4.3933  -12.7163   -0.6179 C   0  0  0  0  0  0  0  0  0  0  0  0
    5.7468  -12.8918   -0.8086 C   0  0  0  0  0  0  0  0  0  0  0  0
    6.5683  -11.7643   -1.0380 C   0  0  0  0  0  0  0  0  0  0  0  0
    6.0355  -10.4892   -1.0471 C   0  0  0  0  0  0  0  0  0  0  0  0
    4.6463  -10.2651   -0.8309 C   0  0  0  0  0  0  0  0  0  0  0  0
   10.9230   -6.3402    0.0818 C   0  0  0  0  0  0  0  0  0  0  0  0
   14.2935   -5.9689    0.6627 H   0  0  0  0  0  0  0  0  0  0  0  0
   13.0763   -4.6951    0.9235 H   0  0  0  0  0  0  0  0  0  0  0  0
   13.4136   -5.2668   -0.7178 H   0  0  0  0  0  0  0  0  0  0  0  0
   13.5437   -8.1551    1.3055 H   0  0  0  0  0  0  0  0  0  0  0  0
   11.7342   -9.8544    1.5291 H   0  0  0  0  0  0  0  0  0  0  0  0
    9.4161   -9.3140    0.8347 H   0  0  0  0  0  0  0  0  0  0  0  0
    7.9558   -7.8972   -0.0398 H   0  0  0  0  0  0  0  0  0  0  0  0
    5.9888   -5.5043   -1.2186 H   0  0  0  0  0  0  0  0  0  0  0  0
    4.1445   -6.8106   -1.2181 H   0  0  0  0  0  0  0  0  0  0  0  0
   -0.1254   -5.6174    1.8674 H   0  0  0  0  0  0  0  0  0  0  0  0
   -1.1682   -3.3829    1.3934 H   0  0  0  0  0  0  0  0  0  0  0  0
   -0.9377   -2.3630   -0.8555 H   0  0  0  0  0  0  0  0  0  0  0  0
   -0.6282   -3.1553   -3.4873 H   0  0  0  0  0  0  0  0  0  0  0  0
    0.9159   -4.0042   -3.7373 H   0  0  0  0  0  0  0  0  0  0  0  0
    0.8902   -2.3909   -2.9871 H   0  0  0  0  0  0  0  0  0  0  0  0
    1.3581   -5.7632   -2.1702 H   0  0  0  0  0  0  0  0  0  0  0  0
    0.7544   -9.8788   -0.4227 H   0  0  0  0  0  0  0  0  0  0  0  0
    1.7843  -12.1407   -0.3317 H   0  0  0  0  0  0  0  0  0  0  0  0
    3.7392  -13.5776   -0.4579 H   0  0  0  0  0  0  0  0  0  0  0  0
    6.1821  -13.8940   -0.7960 H   0  0  0  0  0  0  0  0  0  0  0  0
    7.6379  -11.9012   -1.2171 H   0  0  0  0  0  0  0  0  0  0  0  0
    6.6832   -9.6371   -1.2338 H   0  0  0  0  0  0  0  0  0  0  0  0
   10.6834   -5.3578   -0.3217 H   0  0  0  0  0  0  0  0  0  0  0  0
  1  2  1  0
  1 34  1  0
  1 35  1  0
  1 36  1  0
  2  3  2  0
  2 33  1  0
  3  4  1  0
  3 37  1  0
  4  5  2  0
  4 38  1  0
  5  6  1  0
  5 39  1  0
  6  7  1  0
  6 33  2  0
  7  8  1  0
  7 40  1  0
  8  9  2  0
  8 10  1  0
 10 11  1  0
 10 41  1  0
 11 12  2  0
 12 13  1  0
 12 42  1  0
 13 14  1  0
 13 32  2  0
 14 15  1  0
 14 25  2  0
 15 16  1  0
 16 17  2  0
 16 18  1  0
 18 19  2  0
 18 24  1  0
 19 20  1  0
 19 43  1  0
 20 21  2  0
 20 44  1  0
 21 22  1  0
 21 45  1  0
 22 23  1  0
 22 24  2  0
 23 46  1  0
 23 47  1  0
 23 48  1  0
 24 49  1  0
 25 26  1  0
 25 50  1  0
 26 27  2  0
 26 51  1  0
 27 28  1  0
 27 32  1  0
 28 29  2  0
 28 52  1  0
 29 30  1  0
 29 53  1  0
 30 31  2  0
 30 54  1  0
 31 32  1  0
 31 55  1  0
 33 56  1  0
M  END

