
     RDKit          3D

 47 50  0  0  0  0  0  0  0  0999 V2000
    2.5705   -1.0562    0.4644 C   0  0  0  0  0  0  0  0  0  0  0  0
    2.0697    0.2342    0.7223 O   0  0  0  0  0  0  0  0  0  0  0  0
    2.9412    1.2340    1.0235 C   0  0  0  0  0  0  0  0  0  0  0  0
    4.3326    1.0879    1.1034 C   0  0  0  0  0  0  0  0  0  0  0  0
    5.1520    2.1775    1.4213 C   0  0  0  0  0  0  0  0  0  0  0  0
    4.5899    3.4393    1.6657 C   0  0  0  0  0  0  0  0  0  0  0  0
    5.3437    4.5861    1.9891 N   0  0  0  0  0  0  0  0  0  0  0  0
    6.7074    4.7084    2.1350 C   0  0  0  0  0  0  0  0  0  0  0  0
    7.4929    3.7798    2.0045 O   0  0  0  0  0  0  0  0  0  0  0  0
    7.2027    6.0688    2.4730 C   0  0  0  0  0  0  0  0  0  0  0  0
    8.5373    6.3428    2.7040 C   0  0  0  0  0  0  0  0  0  0  0  0
    8.7458    7.7063    3.0124 C   0  0  0  0  0  0  0  0  0  0  0  0
   10.0986    8.7560    3.3999 S   0  0  0  0  0  0  0  0  0  0  0  0
    8.9351   10.1134    3.5087 C   0  0  0  0  0  0  0  0  0  0  0  0
    9.3759   11.3500    3.8519 N   0  0  0  0  0  0  0  0  0  0  0  0
    8.4962   12.5185    3.8942 C   0  0  0  0  0  0  0  0  0  0  0  0
    8.4486   13.3124    2.6069 C   0  0  0  0  0  0  0  0  0  0  0  0
    7.7685   12.8390    1.4629 C   0  0  0  0  0  0  0  0  0  0  0  0
    7.7683   13.5929    0.3021 C   0  0  0  0  0  0  0  0  0  0  0  0
    8.4589   14.8257    0.3124 C   0  0  0  0  0  0  0  0  0  0  0  0
    8.4489   15.5442   -0.8232 O   0  0  0  0  0  0  0  0  0  0  0  0
    9.1335   16.7897   -0.8306 C   0  0  0  0  0  0  0  0  0  0  0  0
    9.0979   15.2882    1.3767 N   0  0  0  0  0  0  0  0  0  0  0  0
    9.0894   14.5459    2.4914 C   0  0  0  0  0  0  0  0  0  0  0  0
    7.6825    9.8069    3.2779 N   0  0  0  0  0  0  0  0  0  0  0  0
    7.5853    8.4780    3.0143 C   0  0  0  0  0  0  0  0  0  0  0  0
    6.1938    7.5115    2.6281 S   0  0  0  0  0  0  0  0  0  0  0  0
    3.1898    3.5791    1.5839 C   0  0  0  0  0  0  0  0  0  0  0  0
    2.3778    2.4978    1.2688 C   0  0  0  0  0  0  0  0  0  0  0  0
    1.7023   -1.6929    0.2460 H   0  0  0  0  0  0  0  0  0  0  0  0
    3.1079   -1.4731    1.3360 H   0  0  0  0  0  0  0  0  0  0  0  0
    3.2504   -1.0693   -0.4073 H   0  0  0  0  0  0  0  0  0  0  0  0
    4.8053    0.1227    0.9200 H   0  0  0  0  0  0  0  0  0  0  0  0
    6.2307    2.0564    1.4831 H   0  0  0  0  0  0  0  0  0  0  0  0
    4.7885    5.4199    2.1430 H   0  0  0  0  0  0  0  0  0  0  0  0
    9.2912    5.5587    2.6439 H   0  0  0  0  0  0  0  0  0  0  0  0
   10.3741   11.5173    3.8111 H   0  0  0  0  0  0  0  0  0  0  0  0
    8.8387   13.1671    4.7162 H   0  0  0  0  0  0  0  0  0  0  0  0
    7.4963   12.1476    4.1582 H   0  0  0  0  0  0  0  0  0  0  0  0
    7.2444   11.8807    1.5035 H   0  0  0  0  0  0  0  0  0  0  0  0
    7.2544   13.2713   -0.6050 H   0  0  0  0  0  0  0  0  0  0  0  0
    8.9976   17.2021   -1.8390 H   0  0  0  0  0  0  0  0  0  0  0  0
   10.2058   16.6586   -0.6160 H   0  0  0  0  0  0  0  0  0  0  0  0
    8.7178   17.4795   -0.0794 H   0  0  0  0  0  0  0  0  0  0  0  0
    9.6246   14.9672    3.3529 H   0  0  0  0  0  0  0  0  0  0  0  0
    2.7308    4.5550    1.7709 H   0  0  0  0  0  0  0  0  0  0  0  0
    1.2934    2.6076    1.2059 H   0  0  0  0  0  0  0  0  0  0  0  0
  1  2  1  0
  1 30  1  0
  1 31  1  0
  1 32  1  0
  2  3  1  0
  3  4  2  0
  3 29  1  0
  4  5  1  0
  4 33  1  0
  5  6  2  0
  5 34  1  0
  6  7  1  0
  6 28  1  0
  7  8  1  0
  7 35  1  0
  8  9  2  0
  8 10  1  0
 10 11  2  0
 10 27  1  0
 11 12  1  0
 11 36  1  0
 12 13  1  0
 12 26  2  0
 13 14  1  0
 14 15  1  0
 14 25  2  0
 15 16  1  0
 15 37  1  0
 16 17  1  0
 16 38  1  0
 16 39  1  0
 17 18  2  0
 17 24  1  0
 18 19  1  0
 18 40  1  0
 19 20  2  0
 19 41  1  0
 20 21  1  0
 20 23  1  0
 21 22  1  0
 22 42  1  0
 22 43  1  0
 22 44  1  0
 23 24  2  0
 24 45  1  0
 25 26  1  0
 26 27  1  0
 28 29  2  0
 28 46  1  0
 29 47  1  0
M  END

