
     RDKit          3D

 42 44  0  0  0  0  0  0  0  0999 V2000
    0.8762    0.5868    0.0975 C   0  0  0  0  0  0  0  0  0  0  0  0
    2.3649    0.3444    0.0188 C   0  0  0  0  0  0  0  0  0  0  0  0
    3.2388    1.4470    0.0854 C   0  0  0  0  0  0  0  0  0  0  0  0
    4.6217    1.3427   -0.0104 C   0  0  0  0  0  0  0  0  0  0  0  0
    5.2225    0.0798   -0.1956 C   0  0  0  0  0  0  0  0  0  0  0  0
    6.6181   -0.0850   -0.3112 N   0  0  0  0  0  0  0  0  0  0  0  0
    7.2275   -1.4165   -0.3896 C   0  0  0  0  0  0  0  0  0  0  0  0
    8.7313   -1.1497   -0.2198 C   0  0  0  0  0  0  0  0  0  0  0  0
    8.9041    0.2725   -0.7532 C   0  0  0  0  0  0  0  0  0  0  0  0
    7.5502    0.9325   -0.5124 C   0  0  0  0  0  0  0  0  0  0  0  0
    7.3276    2.1244   -0.5214 O   0  0  0  0  0  0  0  0  0  0  0  0
    4.3803   -1.0386   -0.2670 C   0  0  0  0  0  0  0  0  0  0  0  0
    2.9910   -0.9059   -0.1480 C   0  0  0  0  0  0  0  0  0  0  0  0
    2.0983   -2.4751   -0.2650 S   0  0  1  0  0  0  0  0  0  0  0  0
    0.6660   -2.1935   -0.4288 O   0  0  0  0  0  0  0  0  0  0  0  0
    2.7963   -3.3216   -1.2400 O   0  0  0  0  0  0  0  0  0  0  0  0
    2.3942   -3.1822    1.2459 N   0  0  0  0  0  0  0  0  0  0  0  0
    1.5692   -2.7352    2.3760 C   0  0  0  0  0  0  0  0  0  0  0  0
    0.3527   -3.6437    2.5644 C   0  0  0  0  0  0  0  0  0  0  0  0
    0.7485   -4.9982    2.6784 O   0  0  0  0  0  0  0  0  0  0  0  0
    1.4455   -5.4477    1.5317 C   0  0  0  0  0  0  0  0  0  0  0  0
    2.7068   -4.6180    1.2927 C   0  0  0  0  0  0  0  0  0  0  0  0
    0.6819    1.6596    0.2383 H   0  0  0  0  0  0  0  0  0  0  0  0
    0.4005    0.0398    0.9247 H   0  0  0  0  0  0  0  0  0  0  0  0
    0.3652    0.2490   -0.8152 H   0  0  0  0  0  0  0  0  0  0  0  0
    2.8039    2.4417    0.2153 H   0  0  0  0  0  0  0  0  0  0  0  0
    5.2479    2.2298    0.0382 H   0  0  0  0  0  0  0  0  0  0  0  0
    6.9989   -1.8899   -1.3626 H   0  0  0  0  0  0  0  0  0  0  0  0
    6.8276   -2.0727    0.3981 H   0  0  0  0  0  0  0  0  0  0  0  0
    9.3435   -1.8995   -0.7402 H   0  0  0  0  0  0  0  0  0  0  0  0
    8.9958   -1.1874    0.8489 H   0  0  0  0  0  0  0  0  0  0  0  0
    9.0919    0.2905   -1.8415 H   0  0  0  0  0  0  0  0  0  0  0  0
    9.7015    0.8587   -0.2761 H   0  0  0  0  0  0  0  0  0  0  0  0
    4.7809   -2.0354   -0.4394 H   0  0  0  0  0  0  0  0  0  0  0  0
    1.2612   -1.6904    2.2271 H   0  0  0  0  0  0  0  0  0  0  0  0
    2.2016   -2.7671    3.2807 H   0  0  0  0  0  0  0  0  0  0  0  0
   -0.3351   -3.5081    1.7073 H   0  0  0  0  0  0  0  0  0  0  0  0
   -0.1829   -3.3867    3.4916 H   0  0  0  0  0  0  0  0  0  0  0  0
    0.7942   -5.3935    0.6351 H   0  0  0  0  0  0  0  0  0  0  0  0
    1.7043   -6.5038    1.7063 H   0  0  0  0  0  0  0  0  0  0  0  0
    3.2017   -4.9085    0.3570 H   0  0  0  0  0  0  0  0  0  0  0  0
    3.4142   -4.7725    2.1269 H   0  0  0  0  0  0  0  0  0  0  0  0
  1  2  1  0
  1 23  1  0
  1 24  1  0
  1 25  1  0
  2  3  2  0
  2 13  1  0
  3  4  1  0
  3 26  1  0
  4  5  2  0
  4 27  1  0
  5  6  1  0
  5 12  1  0
  6  7  1  0
  6 10  1  0
  7  8  1  0
  7 28  1  0
  7 29  1  0
  8  9  1  0
  8 30  1  0
  8 31  1  0
  9 10  1  0
  9 32  1  0
  9 33  1  0
 10 11  2  0
 12 13  2  0
 12 34  1  0
 14 13  1  1
 14 15  2  0
 14 16  2  0
 14 17  1  0
 17 18  1  0
 17 22  1  0
 18 19  1  0
 18 35  1  0
 18 36  1  0
 19 20  1  0
 19 37  1  0
 19 38  1  0
 20 21  1  0
 21 22  1  0
 21 39  1  0
 21 40  1  0
 22 41  1  0
 22 42  1  0
M  END

