
     RDKit          3D

 42 43  0  0  0  0  0  0  0  0999 V2000
    1.0579   -0.2373   -0.8415 C   0  0  0  0  0  0  0  0  0  0  0  0
    2.0391    0.0713    0.1178 O   0  0  0  0  0  0  0  0  0  0  0  0
    2.6806   -0.9353    0.7706 C   0  0  0  0  0  0  0  0  0  0  0  0
    3.6458   -0.5557    1.7108 C   0  0  0  0  0  0  0  0  0  0  0  0
    4.3428   -1.5336    2.4193 C   0  0  0  0  0  0  0  0  0  0  0  0
    4.1197   -2.9040    2.2209 C   0  0  0  0  0  0  0  0  0  0  0  0
    4.8661   -3.9930    2.9682 C   0  0  0  0  0  0  0  0  0  0  0  0
    6.2599   -3.6358    3.5040 C   0  0  1  0  0  0  0  0  0  0  0  0
    6.1730   -2.6859    4.5653 O   0  0  0  0  0  0  0  0  0  0  0  0
    7.0594   -4.8925    3.9451 C   0  0  1  0  0  0  0  0  0  0  0  0
    7.4827   -5.8017    2.7685 C   0  0  0  0  0  0  0  0  0  0  0  0
    8.6593   -5.2277    1.9712 C   0  0  0  0  0  0  0  0  0  0  0  0
    9.7836   -4.9678    2.8600 N   0  0  0  0  0  0  0  0  0  0  0  0
    9.4583   -4.0049    3.9068 C   0  0  0  0  0  0  0  0  0  0  0  0
    8.3156   -4.5415    4.7724 C   0  0  0  0  0  0  0  0  0  0  0  0
    3.1352   -3.2659    1.2750 C   0  0  0  0  0  0  0  0  0  0  0  0
    2.9262   -4.6052    1.1148 O   0  0  0  0  0  0  0  0  0  0  0  0
    1.9887   -5.0633    0.1711 C   0  0  0  0  0  0  0  0  0  0  0  0
    2.4212   -2.2976    0.5503 C   0  0  0  0  0  0  0  0  0  0  0  0
    0.6857    0.7204   -1.2307 H   0  0  0  0  0  0  0  0  0  0  0  0
    0.2096   -0.7952   -0.4036 H   0  0  0  0  0  0  0  0  0  0  0  0
    1.4699   -0.8253   -1.6825 H   0  0  0  0  0  0  0  0  0  0  0  0
    3.8315    0.5072    1.8739 H   0  0  0  0  0  0  0  0  0  0  0  0
    5.0816   -1.2328    3.1634 H   0  0  0  0  0  0  0  0  0  0  0  0
    4.9398   -4.8669    2.3060 H   0  0  0  0  0  0  0  0  0  0  0  0
    4.2571   -4.3492    3.8253 H   0  0  0  0  0  0  0  0  0  0  0  0
    6.8173   -3.1080    2.7132 H   0  0  0  0  0  0  0  0  0  0  0  0
    5.5778   -3.0465    5.2381 H   0  0  0  0  0  0  0  0  0  0  0  0
    6.3804   -5.4756    4.5970 H   0  0  0  0  0  0  0  0  0  0  0  0
    6.6384   -6.0026    2.0900 H   0  0  0  0  0  0  0  0  0  0  0  0
    7.7963   -6.7754    3.1806 H   0  0  0  0  0  0  0  0  0  0  0  0
    8.3262   -4.3169    1.4206 H   0  0  0  0  0  0  0  0  0  0  0  0
    8.9716   -5.9565    1.2046 H   0  0  0  0  0  0  0  0  0  0  0  0
   10.5938   -4.6574    2.3276 H   0  0  0  0  0  0  0  0  0  0  0  0
    9.1757   -3.0061    3.5014 H   0  0  0  0  0  0  0  0  0  0  0  0
   10.3520   -3.8469    4.5330 H   0  0  0  0  0  0  0  0  0  0  0  0
    8.0619   -3.8070    5.5497 H   0  0  0  0  0  0  0  0  0  0  0  0
    8.6683   -5.4582    5.2745 H   0  0  0  0  0  0  0  0  0  0  0  0
    2.0084   -6.1609    0.2162 H   0  0  0  0  0  0  0  0  0  0  0  0
    2.2448   -4.7449   -0.8559 H   0  0  0  0  0  0  0  0  0  0  0  0
    0.9649   -4.7173    0.4034 H   0  0  0  0  0  0  0  0  0  0  0  0
    1.6717   -2.6035   -0.1750 H   0  0  0  0  0  0  0  0  0  0  0  0
  1  2  1  0
  1 20  1  0
  1 21  1  0
  1 22  1  0
  2  3  1  0
  3  4  2  0
  3 19  1  0
  4  5  1  0
  4 23  1  0
  5  6  2  0
  5 24  1  0
  6  7  1  0
  6 16  1  0
  7  8  1  0
  7 25  1  0
  7 26  1  0
  8  9  1  0
  8 10  1  0
  8 27  1  6
  9 28  1  0
 10 11  1  0
 10 15  1  0
 10 29  1  1
 11 12  1  0
 11 30  1  0
 11 31  1  0
 12 13  1  0
 12 32  1  0
 12 33  1  0
 13 14  1  0
 13 34  1  0
 14 15  1  0
 14 35  1  0
 14 36  1  0
 15 37  1  0
 15 38  1  0
 16 17  1  0
 16 19  2  0
 17 18  1  0
 18 39  1  0
 18 40  1  0
 18 41  1  0
 19 42  1  0
M  END

