
     RDKit          3D

 58 59  0  0  0  0  0  0  0  0999 V2000
    2.7064   -3.4809    2.5097 C   0  0  0  0  0  0  0  0  0  0  0  0
    2.2883   -4.2570    1.2555 C   0  0  1  0  0  0  0  0  0  0  0  0
    2.4417   -5.7711    1.4388 C   0  0  0  0  0  0  0  0  0  0  0  0
    0.8537   -3.9040    0.8558 C   0  0  0  0  0  0  0  0  0  0  0  0
    3.0676   -3.8099    0.1021 O   0  0  0  0  0  0  0  0  0  0  0  0
    4.4195   -3.9425    0.0610 C   0  0  0  0  0  0  0  0  0  0  0  0
    5.1113   -4.4284    0.9217 O   0  0  0  0  0  0  0  0  0  0  0  0
    4.8535   -3.4039   -1.1330 N   0  0  0  0  0  0  0  0  0  0  0  0
    6.1774   -3.3727   -1.6195 C   0  0  0  0  0  0  0  0  0  0  0  0
    6.6061   -2.2665   -2.3774 C   0  0  0  0  0  0  0  0  0  0  0  0
    7.8975   -2.2618   -2.8843 C   0  0  0  0  0  0  0  0  0  0  0  0
    8.7686   -3.3430   -2.6210 C   0  0  0  0  0  0  0  0  0  0  0  0
   10.0450   -3.3592   -3.1487 N   0  0  0  0  0  0  0  0  0  0  0  0
   11.1329   -4.2424   -2.7304 C   0  0  1  0  0  0  0  0  0  0  0  0
   12.1723   -4.2974   -3.8656 C   0  0  0  0  0  0  0  0  0  0  0  0
   12.9316   -2.9754   -4.0366 C   0  0  0  0  0  0  0  0  0  0  0  0
   13.5768   -2.5299   -2.7199 C   0  0  0  0  0  0  0  0  0  0  0  0
   12.5676   -2.5028   -1.5584 C   0  0  0  0  0  0  0  0  0  0  0  0
   11.7389   -3.7987   -1.3546 C   0  0  2  0  0  0  0  0  0  0  0  0
   12.4200   -4.9116   -0.4623 C   0  0  1  0  0  0  0  0  0  0  0  0
   12.4653   -4.3875    0.9915 C   0  0  0  0  0  0  0  0  0  0  0  0
   11.5671   -6.1979   -0.4550 C   0  0  0  0  0  0  0  0  0  0  0  0
   13.8581   -5.2924   -0.8702 C   0  0  0  0  0  0  0  0  0  0  0  0
    8.2274   -4.3873   -1.8368 C   0  0  0  0  0  0  0  0  0  0  0  0
    6.9783   -4.4014   -1.3765 N   0  0  0  0  0  0  0  0  0  0  0  0
    2.0412   -3.7414    3.3480 H   0  0  0  0  0  0  0  0  0  0  0  0
    2.6243   -2.3965    2.3337 H   0  0  0  0  0  0  0  0  0  0  0  0
    3.7402   -3.7161    2.7922 H   0  0  0  0  0  0  0  0  0  0  0  0
    1.7697   -6.1196    2.2389 H   0  0  0  0  0  0  0  0  0  0  0  0
    3.4739   -6.0328    1.7034 H   0  0  0  0  0  0  0  0  0  0  0  0
    2.1702   -6.2977    0.5104 H   0  0  0  0  0  0  0  0  0  0  0  0
    0.1517   -4.1966    1.6515 H   0  0  0  0  0  0  0  0  0  0  0  0
    0.5702   -4.4275   -0.0700 H   0  0  0  0  0  0  0  0  0  0  0  0
    0.7546   -2.8213    0.6837 H   0  0  0  0  0  0  0  0  0  0  0  0
    4.1442   -2.9224   -1.6721 H   0  0  0  0  0  0  0  0  0  0  0  0
    5.9384   -1.4198   -2.5560 H   0  0  0  0  0  0  0  0  0  0  0  0
    8.2480   -1.4133   -3.4800 H   0  0  0  0  0  0  0  0  0  0  0  0
   10.3282   -2.4981   -3.5990 H   0  0  0  0  0  0  0  0  0  0  0  0
   10.7000   -5.2459   -2.6288 H   0  0  0  0  0  0  0  0  0  0  0  0
   11.6605   -4.5769   -4.8009 H   0  0  0  0  0  0  0  0  0  0  0  0
   12.8931   -5.1014   -3.6476 H   0  0  0  0  0  0  0  0  0  0  0  0
   12.2454   -2.1866   -4.4000 H   0  0  0  0  0  0  0  0  0  0  0  0
   13.6949   -3.0798   -4.8255 H   0  0  0  0  0  0  0  0  0  0  0  0
   14.0225   -1.5274   -2.8368 H   0  0  0  0  0  0  0  0  0  0  0  0
   14.4133   -3.2068   -2.4874 H   0  0  0  0  0  0  0  0  0  0  0  0
   11.8550   -1.6804   -1.7488 H   0  0  0  0  0  0  0  0  0  0  0  0
   13.0807   -2.2255   -0.6245 H   0  0  0  0  0  0  0  0  0  0  0  0
   10.8589   -3.5070   -0.7571 H   0  0  0  0  0  0  0  0  0  0  0  0
   11.4528   -4.1734    1.3705 H   0  0  0  0  0  0  0  0  0  0  0  0
   13.0608   -3.4661    1.0836 H   0  0  0  0  0  0  0  0  0  0  0  0
   12.9199   -5.1375    1.6588 H   0  0  0  0  0  0  0  0  0  0  0  0
   10.5164   -5.9878   -0.1988 H   0  0  0  0  0  0  0  0  0  0  0  0
   11.9524   -6.9016    0.3002 H   0  0  0  0  0  0  0  0  0  0  0  0
   11.5870   -6.7247   -1.4219 H   0  0  0  0  0  0  0  0  0  0  0  0
   14.5549   -4.4465   -0.7734 H   0  0  0  0  0  0  0  0  0  0  0  0
   13.9203   -5.6701   -1.9018 H   0  0  0  0  0  0  0  0  0  0  0  0
   14.2305   -6.0930   -0.2100 H   0  0  0  0  0  0  0  0  0  0  0  0
    8.8351   -5.2614   -1.5866 H   0  0  0  0  0  0  0  0  0  0  0  0
  1  2  1  0
  1 26  1  0
  1 27  1  0
  1 28  1  0
  2  3  1  0
  2  4  1  0
  2  5  1  6
  3 29  1  0
  3 30  1  0
  3 31  1  0
  4 32  1  0
  4 33  1  0
  4 34  1  0
  5  6  1  0
  6  7  2  0
  6  8  1  0
  8  9  1  0
  8 35  1  0
  9 10  2  0
  9 25  1  0
 10 11  1  0
 10 36  1  0
 11 12  2  0
 11 37  1  0
 12 13  1  0
 12 24  1  0
 13 14  1  0
 13 38  1  0
 14 15  1  0
 14 19  1  0
 14 39  1  1
 15 16  1  0
 15 40  1  0
 15 41  1  0
 16 17  1  0
 16 42  1  0
 16 43  1  0
 17 18  1  0
 17 44  1  0
 17 45  1  0
 18 19  1  0
 18 46  1  0
 18 47  1  0
 19 20  1  0
 19 48  1  1
 20 21  1  1
 20 22  1  0
 20 23  1  0
 21 49  1  0
 21 50  1  0
 21 51  1  0
 22 52  1  0
 22 53  1  0
 22 54  1  0
 23 55  1  0
 23 56  1  0
 23 57  1  0
 24 25  2  0
 24 58  1  0
M  END

