
     RDKit          3D

 36 36  0  0  0  0  0  0  0  0999 V2000
    1.4510   -0.4736   -0.0389 C   0  0  0  0  0  0  0  0  0  0  0  0
    2.8979    0.0125    0.0578 C   0  0  0  0  0  0  0  0  0  0  0  0
    3.1390    1.4290   -0.4910 C   0  0  1  0  0  0  0  0  0  0  0  0
    2.2456    2.5084    0.1720 C   0  0  0  0  0  0  0  0  0  0  0  0
    2.2859    2.5325    1.6777 C   0  0  0  0  0  0  0  0  0  0  0  0
    3.4868    2.7373    2.2946 N   0  0  0  0  0  0  0  0  0  0  0  0
    1.1735    2.3314    2.3045 N   0  0  0  0  0  0  0  0  0  0  0  0
    1.3932    2.3948    3.7025 O   0  0  0  0  0  0  0  0  0  0  0  0
    4.5618    1.7552   -0.3776 N   0  0  0  0  0  0  0  0  0  0  0  0
    5.2834    2.4433   -1.3518 C   0  0  0  0  0  0  0  0  0  0  0  0
    6.6904    2.3913   -1.3547 C   0  0  0  0  0  0  0  0  0  0  0  0
    7.4434    3.0928   -2.2970 C   0  0  0  0  0  0  0  0  0  0  0  0
    6.8282    3.8788   -3.2829 C   0  0  0  0  0  0  0  0  0  0  0  0
    7.4842    4.5911   -4.2341 O   0  0  0  0  0  0  0  0  0  0  0  0
    8.8904    4.5537   -4.2664 C   0  0  0  0  0  0  0  0  0  0  0  0
    5.4210    3.9297   -3.2798 C   0  0  0  0  0  0  0  0  0  0  0  0
    4.6024    4.8937   -4.4839 Cl  0  0  0  0  0  0  0  0  0  0  0  0
    4.6615    3.2329   -2.3402 C   0  0  0  0  0  0  0  0  0  0  0  0
    1.3779   -1.5282    0.2699 H   0  0  0  0  0  0  0  0  0  0  0  0
    1.0712   -0.4049   -1.0723 H   0  0  0  0  0  0  0  0  0  0  0  0
    0.7863    0.1107    0.6144 H   0  0  0  0  0  0  0  0  0  0  0  0
    3.5591   -0.6753   -0.4983 H   0  0  0  0  0  0  0  0  0  0  0  0
    3.2261   -0.0175    1.1124 H   0  0  0  0  0  0  0  0  0  0  0  0
    2.8702    1.4160   -1.5640 H   0  0  0  0  0  0  0  0  0  0  0  0
    1.1971    2.3645   -0.1222 H   0  0  0  0  0  0  0  0  0  0  0  0
    2.5558    3.4955   -0.2120 H   0  0  0  0  0  0  0  0  0  0  0  0
    4.2861    3.0073    1.7392 H   0  0  0  0  0  0  0  0  0  0  0  0
    3.4804    2.8942    3.2943 H   0  0  0  0  0  0  0  0  0  0  0  0
    0.5030    2.2909    4.0572 H   0  0  0  0  0  0  0  0  0  0  0  0
    5.1082    1.0666    0.1268 H   0  0  0  0  0  0  0  0  0  0  0  0
    7.2082    1.7865   -0.6047 H   0  0  0  0  0  0  0  0  0  0  0  0
    8.5304    3.0165   -2.2587 H   0  0  0  0  0  0  0  0  0  0  0  0
    9.2006    5.1901   -5.1062 H   0  0  0  0  0  0  0  0  0  0  0  0
    9.2739    3.5302   -4.4343 H   0  0  0  0  0  0  0  0  0  0  0  0
    9.3371    4.9498   -3.3356 H   0  0  0  0  0  0  0  0  0  0  0  0
    3.5780    3.3270   -2.3934 H   0  0  0  0  0  0  0  0  0  0  0  0
  1  2  1  0
  1 19  1  0
  1 20  1  0
  1 21  1  0
  2  3  1  0
  2 22  1  0
  2 23  1  0
  3  4  1  0
  3  9  1  0
  3 24  1  6
  4  5  1  0
  4 25  1  0
  4 26  1  0
  5  6  1  0
  5  7  2  0
  6 27  1  0
  6 28  1  0
  7  8  1  0
  8 29  1  0
  9 10  1  0
  9 30  1  0
 10 11  2  0
 10 18  1  0
 11 12  1  0
 11 31  1  0
 12 13  2  0
 12 32  1  0
 13 14  1  0
 13 16  1  0
 14 15  1  0
 15 33  1  0
 15 34  1  0
 15 35  1  0
 16 17  1  0
 16 18  2  0
 18 36  1  0
M  END

