
     RDKit          3D

 67 75  0  0  0  0  0  0  0  0999 V2000
   -0.6688    0.8481    1.5559 C   0  0  0  0  0  0  0  0  0  0  0  0
    0.0788   -0.3211    1.7411 C   0  0  0  0  0  0  0  0  0  0  0  0
    1.3914   -0.4169    1.2840 C   0  0  0  0  0  0  0  0  0  0  0  0
    1.9904    0.6747    0.6187 C   0  0  0  0  0  0  0  0  0  0  0  0
    3.3081    0.5947    0.1690 N   0  0  0  0  0  0  0  0  0  0  0  0
    4.0450   -0.5352    0.3501 N   0  0  0  0  0  0  0  0  0  0  0  0
    5.2678   -0.3307   -0.0019 C   0  0  0  0  0  0  0  0  0  0  0  0
    6.3342   -1.3549    0.1174 C   0  0  0  0  0  0  0  0  0  0  0  0
    7.0093   -1.7989   -1.0496 C   0  0  0  0  0  0  0  0  0  0  0  0
    6.6132   -1.4027   -2.3700 C   0  0  0  0  0  0  0  0  0  0  0  0
    7.2876   -1.8435   -3.4825 C   0  0  0  0  0  0  0  0  0  0  0  0
    8.4052   -2.7191   -3.3560 C   0  0  0  0  0  0  0  0  0  0  0  0
    8.8034   -3.1449   -2.1145 C   0  0  0  0  0  0  0  0  0  0  0  0
    8.1227   -2.7140   -0.9301 C   0  0  0  0  0  0  0  0  0  0  0  0
    8.5034   -3.1692    0.3385 C   0  0  0  0  0  0  0  0  0  0  0  0
    7.8291   -2.7671    1.4982 C   0  0  0  0  0  0  0  0  0  0  0  0
    8.2210   -3.2484    2.7894 C   0  0  0  0  0  0  0  0  0  0  0  0
    7.5698   -2.8411    3.9251 C   0  0  0  0  0  0  0  0  0  0  0  0
    6.4849   -1.9213    3.8307 C   0  0  0  0  0  0  0  0  0  0  0  0
    6.0761   -1.4383    2.6121 C   0  0  0  0  0  0  0  0  0  0  0  0
    6.7216   -1.8397    1.3956 C   0  0  0  0  0  0  0  0  0  0  0  0
    5.5120    1.1182   -0.4024 C   0  0  0  0  0  0  0  0  0  0  0  0
    4.0622    1.6646   -0.5090 C   0  0  1  0  0  0  0  0  0  0  0  0
    3.6190    1.9007   -1.9522 C   0  0  0  0  0  0  0  0  0  0  0  0
    2.9262    0.8996   -2.6442 C   0  0  0  0  0  0  0  0  0  0  0  0
    2.5424    1.0627   -3.9737 C   0  0  0  0  0  0  0  0  0  0  0  0
    2.8373    2.2462   -4.6690 C   0  0  0  0  0  0  0  0  0  0  0  0
    2.4472    2.4475   -6.0394 C   0  0  0  0  0  0  0  0  0  0  0  0
    2.7426    3.6038   -6.6984 C   0  0  0  0  0  0  0  0  0  0  0  0
    3.4593    4.6687   -6.0478 C   0  0  0  0  0  0  0  0  0  0  0  0
    3.7774    5.8695   -6.7080 C   0  0  0  0  0  0  0  0  0  0  0  0
    4.4759    6.8850   -6.0522 C   0  0  0  0  0  0  0  0  0  0  0  0
    4.8734    6.7258   -4.7245 C   0  0  0  0  0  0  0  0  0  0  0  0
    4.5769    5.5424   -4.0230 C   0  0  0  0  0  0  0  0  0  0  0  0
    4.9698    5.3395   -2.6566 C   0  0  0  0  0  0  0  0  0  0  0  0
    4.6724    4.1855   -1.9913 C   0  0  0  0  0  0  0  0  0  0  0  0
    3.9463    3.1094   -2.6209 C   0  0  0  0  0  0  0  0  0  0  0  0
    3.5486    3.2847   -3.9884 C   0  0  0  0  0  0  0  0  0  0  0  0
    3.8607    4.4960   -4.6840 C   0  0  0  0  0  0  0  0  0  0  0  0
    1.2366    1.8507    0.4264 C   0  0  0  0  0  0  0  0  0  0  0  0
   -0.0767    1.9273    0.8961 C   0  0  0  0  0  0  0  0  0  0  0  0
   -1.6970    0.9145    1.9187 H   0  0  0  0  0  0  0  0  0  0  0  0
   -0.3665   -1.1781    2.2542 H   0  0  0  0  0  0  0  0  0  0  0  0
    1.9723   -1.3264    1.4320 H   0  0  0  0  0  0  0  0  0  0  0  0
    5.7416   -0.7585   -2.4942 H   0  0  0  0  0  0  0  0  0  0  0  0
    6.9589   -1.5289   -4.4762 H   0  0  0  0  0  0  0  0  0  0  0  0
    8.9323   -3.0575   -4.2515 H   0  0  0  0  0  0  0  0  0  0  0  0
    9.6484   -3.8303   -2.0061 H   0  0  0  0  0  0  0  0  0  0  0  0
    9.3459   -3.8614    0.4255 H   0  0  0  0  0  0  0  0  0  0  0  0
    9.0563   -3.9515    2.8482 H   0  0  0  0  0  0  0  0  0  0  0  0
    7.8786   -3.2167    4.9039 H   0  0  0  0  0  0  0  0  0  0  0  0
    5.9715   -1.6000    4.7406 H   0  0  0  0  0  0  0  0  0  0  0  0
    5.2338   -0.7495    2.5587 H   0  0  0  0  0  0  0  0  0  0  0  0
    6.0811    1.2360   -1.3341 H   0  0  0  0  0  0  0  0  0  0  0  0
    6.0889    1.6168    0.3970 H   0  0  0  0  0  0  0  0  0  0  0  0
    3.9502    2.5952    0.0663 H   0  0  0  0  0  0  0  0  0  0  0  0
    2.6718   -0.0248   -2.1224 H   0  0  0  0  0  0  0  0  0  0  0  0
    1.9984    0.2636   -4.4841 H   0  0  0  0  0  0  0  0  0  0  0  0
    1.9026    1.6455   -6.5451 H   0  0  0  0  0  0  0  0  0  0  0  0
    2.4383    3.7416   -7.7394 H   0  0  0  0  0  0  0  0  0  0  0  0
    3.4695    6.0001   -7.7489 H   0  0  0  0  0  0  0  0  0  0  0  0
    4.7132    7.8104   -6.5830 H   0  0  0  0  0  0  0  0  0  0  0  0
    5.4214    7.5230   -4.2150 H   0  0  0  0  0  0  0  0  0  0  0  0
    5.5204    6.1367   -2.1497 H   0  0  0  0  0  0  0  0  0  0  0  0
    4.9998    4.0793   -0.9563 H   0  0  0  0  0  0  0  0  0  0  0  0
    1.6648    2.7039   -0.1004 H   0  0  0  0  0  0  0  0  0  0  0  0
   -0.6426    2.8490    0.7355 H   0  0  0  0  0  0  0  0  0  0  0  0
  1  2  2  0
  1 41  1  0
  1 42  1  0
  2  3  1  0
  2 43  1  0
  3  4  2  0
  3 44  1  0
  4  5  1  0
  4 40  1  0
  5  6  1  0
  5 23  1  0
  6  7  2  0
  7  8  1  0
  7 22  1  0
  8  9  1  0
  8 21  2  0
  9 10  2  0
  9 14  1  0
 10 11  1  0
 10 45  1  0
 11 12  2  0
 11 46  1  0
 12 13  1  0
 12 47  1  0
 13 14  2  0
 13 48  1  0
 14 15  1  0
 15 16  2  0
 15 49  1  0
 16 17  1  0
 16 21  1  0
 17 18  2  0
 17 50  1  0
 18 19  1  0
 18 51  1  0
 19 20  2  0
 19 52  1  0
 20 21  1  0
 20 53  1  0
 22 23  1  0
 22 54  1  0
 22 55  1  0
 23 24  1  0
 23 56  1  1
 24 25  2  0
 24 37  1  0
 25 26  1  0
 25 57  1  0
 26 27  2  0
 26 58  1  0
 27 28  1  0
 27 38  1  0
 28 29  2  0
 28 59  1  0
 29 30  1  0
 29 60  1  0
 30 31  2  0
 30 39  1  0
 31 32  1  0
 31 61  1  0
 32 33  2  0
 32 62  1  0
 33 34  1  0
 33 63  1  0
 34 35  2  0
 34 39  1  0
 35 36  1  0
 35 64  1  0
 36 37  2  0
 36 65  1  0
 37 38  1  0
 38 39  2  0
 40 41  2  0
 40 66  1  0
 41 67  1  0
M  END

