
     RDKit          3D

 39 42  0  0  0  0  0  0  0  0999 V2000
    1.2200   -0.3179    0.6036 O   0  0  0  0  0  0  0  0  0  0  0  0
    2.3780   -0.0354    0.3167 C   0  0  0  0  0  0  0  0  0  0  0  0
    3.3128   -1.0766    0.2141 N   0  0  0  0  0  0  0  0  0  0  0  0
    2.9187   -1.9956    0.3921 H   0  0  0  0  0  0  0  0  0  0  0  0
    4.6370   -0.9351   -0.0885 C   0  0  0  0  0  0  0  0  0  0  0  0
    5.1649    0.2951   -0.3166 C   0  0  0  0  0  0  0  0  0  0  0  0
    4.3097    1.4511   -0.2360 C   0  0  0  0  0  0  0  0  0  0  0  0
    4.8987    2.6588   -0.4184 N   0  0  0  0  0  0  0  0  0  0  0  0
    4.1899    3.7705   -0.3690 C   0  0  0  0  0  0  0  0  0  0  0  0
    4.9185    4.9235   -0.4977 N   0  0  0  0  0  0  0  0  0  0  0  0
    4.6508    6.2563    0.0379 C   0  0  0  0  0  0  0  0  0  0  0  0
    5.9097    6.8747    0.5979 C   0  0  0  0  0  0  0  0  0  0  0  0
    6.4375    8.0105    0.0955 C   0  0  0  0  0  0  0  0  0  0  0  0
    7.6522    8.6477    0.7242 C   0  0  0  0  0  0  0  0  0  0  0  0
    8.5814    7.6092    1.3710 C   0  0  0  0  0  0  0  0  0  0  0  0
    7.8061    6.5580    2.1275 C   0  0  0  0  0  0  0  0  0  0  0  0
    6.5627    6.2153    1.7448 C   0  0  0  0  0  0  0  0  0  0  0  0
    2.7382    3.7487   -0.2324 C   0  0  0  0  0  0  0  0  0  0  0  0
    1.8990    4.8747   -0.4019 C   0  0  0  0  0  0  0  0  0  0  0  0
    0.5322    4.7334   -0.2418 C   0  0  0  0  0  0  0  0  0  0  0  0
   -0.0562    3.5665    0.0815 N   0  0  0  0  0  0  0  0  0  0  0  0
    0.7004    2.4910    0.2073 C   0  0  0  0  0  0  0  0  0  0  0  0
    2.1200    2.4896    0.0330 C   0  0  0  0  0  0  0  0  0  0  0  0
    2.9335    1.2996    0.0541 C   0  0  0  0  0  0  0  0  0  0  0  0
    5.2244   -1.8547   -0.1292 H   0  0  0  0  0  0  0  0  0  0  0  0
    6.2190    0.4357   -0.5496 H   0  0  0  0  0  0  0  0  0  0  0  0
    5.8998    4.7119   -0.6583 H   0  0  0  0  0  0  0  0  0  0  0  0
    3.9011    6.1760    0.8428 H   0  0  0  0  0  0  0  0  0  0  0  0
    4.2302    6.9269   -0.7326 H   0  0  0  0  0  0  0  0  0  0  0  0
    5.9466    8.5220   -0.7391 H   0  0  0  0  0  0  0  0  0  0  0  0
    7.3052    9.3672    1.4945 H   0  0  0  0  0  0  0  0  0  0  0  0
    8.2051    9.2470   -0.0165 H   0  0  0  0  0  0  0  0  0  0  0  0
    9.3106    8.1079    2.0291 H   0  0  0  0  0  0  0  0  0  0  0  0
    9.1821    7.1021    0.5878 H   0  0  0  0  0  0  0  0  0  0  0  0
    8.2918    6.0390    2.9595 H   0  0  0  0  0  0  0  0  0  0  0  0
    6.0212    5.4193    2.2648 H   0  0  0  0  0  0  0  0  0  0  0  0
    2.3018    5.8457   -0.6814 H   0  0  0  0  0  0  0  0  0  0  0  0
   -0.1315    5.5951   -0.3766 H   0  0  0  0  0  0  0  0  0  0  0  0
    0.2084    1.5476    0.4476 H   0  0  0  0  0  0  0  0  0  0  0  0
  1  2  2  0
  2  3  1  0
  2 24  1  0
  3  4  1  0
  3  5  1  0
  5  6  2  0
  5 25  1  0
  6  7  1  0
  6 26  1  0
  7  8  1  0
  7 24  2  0
  8  9  2  0
  9 10  1  0
  9 18  1  0
 10 11  1  0
 10 27  1  0
 11 12  1  0
 11 28  1  0
 11 29  1  0
 12 13  2  0
 12 17  1  0
 13 14  1  0
 13 30  1  0
 14 15  1  0
 14 31  1  0
 14 32  1  0
 15 16  1  0
 15 33  1  0
 15 34  1  0
 16 17  2  0
 16 35  1  0
 17 36  1  0
 18 19  1  0
 18 23  2  0
 19 20  2  0
 19 37  1  0
 20 21  1  0
 20 38  1  0
 21 22  2  0
 22 23  1  0
 22 39  1  0
 23 24  1  0
M  END

