
     RDKit          3D

 31 31  0  0  0  0  0  0  0  0999 V2000
    1.4259    2.5367    1.4220 C   0  0  0  0  0  0  0  0  0  0  0  0
    2.5426    2.3812    0.5887 O   0  0  0  0  0  0  0  0  0  0  0  0
    3.6324    1.7358    1.2042 C   0  0  0  0  0  0  0  0  0  0  0  0
    4.7765    1.6263    0.2082 C   0  0  0  0  0  0  0  0  0  0  0  0
    5.2518    2.9812   -0.2947 C   0  0  0  0  0  0  0  0  0  0  0  0
    6.3303    2.7609   -1.1894 O   0  0  0  0  0  0  0  0  0  0  0  0
    6.9223    3.8155   -1.8015 C   0  0  0  0  0  0  0  0  0  0  0  0
    6.5343    5.1501   -1.6118 C   0  0  0  0  0  0  0  0  0  0  0  0
    7.2280    6.1394   -2.3099 C   0  0  0  0  0  0  0  0  0  0  0  0
    6.8498    7.4166   -2.1284 F   0  0  0  0  0  0  0  0  0  0  0  0
    8.2789    5.8643   -3.1737 C   0  0  0  0  0  0  0  0  0  0  0  0
    8.6615    4.5246   -3.3557 C   0  0  0  0  0  0  0  0  0  0  0  0
    9.8354    4.1796   -4.2556 C   0  0  0  0  0  0  0  0  0  0  0  0
   10.0206    5.1493   -5.3266 N   0  0  0  0  0  0  0  0  0  0  0  0
    7.9806    3.5119   -2.6765 C   0  0  0  0  0  0  0  0  0  0  0  0
    0.6410    3.0462    0.8441 H   0  0  0  0  0  0  0  0  0  0  0  0
    1.6569    3.1481    2.3185 H   0  0  0  0  0  0  0  0  0  0  0  0
    1.0293    1.5612    1.7712 H   0  0  0  0  0  0  0  0  0  0  0  0
    3.3402    0.7236    1.5544 H   0  0  0  0  0  0  0  0  0  0  0  0
    3.9564    2.3015    2.1056 H   0  0  0  0  0  0  0  0  0  0  0  0
    4.4571    1.0172   -0.6532 H   0  0  0  0  0  0  0  0  0  0  0  0
    5.6194    1.0985    0.6843 H   0  0  0  0  0  0  0  0  0  0  0  0
    5.5830    3.6144    0.5516 H   0  0  0  0  0  0  0  0  0  0  0  0
    4.4246    3.5070   -0.8015 H   0  0  0  0  0  0  0  0  0  0  0  0
    5.7166    5.4445   -0.9561 H   0  0  0  0  0  0  0  0  0  0  0  0
    8.7919    6.6652   -3.7058 H   0  0  0  0  0  0  0  0  0  0  0  0
    9.7130    3.1297   -4.5967 H   0  0  0  0  0  0  0  0  0  0  0  0
   10.7539    4.1869   -3.6395 H   0  0  0  0  0  0  0  0  0  0  0  0
    9.2549    5.0921   -5.9991 H   0  0  0  0  0  0  0  0  0  0  0  0
   10.8805    4.9591   -5.8391 H   0  0  0  0  0  0  0  0  0  0  0  0
    8.2498    2.4617   -2.8099 H   0  0  0  0  0  0  0  0  0  0  0  0
  1  2  1  0
  1 16  1  0
  1 17  1  0
  1 18  1  0
  2  3  1  0
  3  4  1  0
  3 19  1  0
  3 20  1  0
  4  5  1  0
  4 21  1  0
  4 22  1  0
  5  6  1  0
  5 23  1  0
  5 24  1  0
  6  7  1  0
  7  8  2  0
  7 15  1  0
  8  9  1  0
  8 25  1  0
  9 10  1  0
  9 11  2  0
 11 12  1  0
 11 26  1  0
 12 13  1  0
 12 15  2  0
 13 14  1  0
 13 27  1  0
 13 28  1  0
 14 29  1  0
 14 30  1  0
 15 31  1  0
M  END

