
     RDKit          3D

 29 30  0  0  0  0  0  0  0  0999 V2000
    1.1158    0.1373    0.0126 C   0  0  0  0  0  0  0  0  0  0  0  0
    2.5540   -0.1380   -0.0809 N   0  0  0  0  0  0  0  0  0  0  0  0
    3.2159   -0.0882   -1.3008 C   0  0  0  0  0  0  0  0  0  0  0  0
    4.3355   -0.5374   -1.4857 O   0  0  0  0  0  0  0  0  0  0  0  0
    2.5049    0.5445   -2.4769 C   0  0  0  0  0  0  0  0  0  0  0  0
    2.4422   -0.1796   -3.6746 C   0  0  0  0  0  0  0  0  0  0  0  0
    1.9096    0.3662   -4.8431 C   0  0  0  0  0  0  0  0  0  0  0  0
    1.4632    1.6893   -4.8147 C   0  0  0  0  0  0  0  0  0  0  0  0
    0.7382    2.4774   -6.3911 Br  0  0  0  0  0  0  0  0  0  0  0  0
    1.5454    2.4548   -3.6510 C   0  0  0  0  0  0  0  0  0  0  0  0
    2.0712    1.8862   -2.4821 C   0  0  0  0  0  0  0  0  0  0  0  0
    2.1876    2.5993   -1.3344 O   0  0  0  0  0  0  0  0  0  0  0  0
    3.2012   -0.4592    1.1446 C   0  0  0  0  0  0  0  0  0  0  0  0
    4.5557   -0.8504    1.2507 C   0  0  0  0  0  0  0  0  0  0  0  0
    5.0624   -1.1076    2.5216 C   0  0  0  0  0  0  0  0  0  0  0  0
    4.2395   -0.9875    3.6456 C   0  0  0  0  0  0  0  0  0  0  0  0
    2.9164   -0.6064    3.4293 C   0  0  0  0  0  0  0  0  0  0  0  0
    2.4160   -0.3492    2.2208 N   0  0  0  0  0  0  0  0  0  0  0  0
    0.6905    0.1709   -0.9952 H   0  0  0  0  0  0  0  0  0  0  0  0
    0.9219    1.0863    0.5297 H   0  0  0  0  0  0  0  0  0  0  0  0
    0.6278   -0.6623    0.5837 H   0  0  0  0  0  0  0  0  0  0  0  0
    2.8274   -1.2016   -3.6827 H   0  0  0  0  0  0  0  0  0  0  0  0
    1.8533   -0.2203   -5.7605 H   0  0  0  0  0  0  0  0  0  0  0  0
    1.2104    3.4950   -3.6499 H   0  0  0  0  0  0  0  0  0  0  0  0
    1.8868    3.5067   -1.4765 H   0  0  0  0  0  0  0  0  0  0  0  0
    5.1677   -0.9512    0.3610 H   0  0  0  0  0  0  0  0  0  0  0  0
    6.1077   -1.4099    2.6284 H   0  0  0  0  0  0  0  0  0  0  0  0
    4.6083   -1.1866    4.6538 H   0  0  0  0  0  0  0  0  0  0  0  0
    2.2221   -0.5010    4.2719 H   0  0  0  0  0  0  0  0  0  0  0  0
  1  2  1  0
  1 19  1  0
  1 20  1  0
  1 21  1  0
  2  3  1  0
  2 13  1  0
  3  4  2  0
  3  5  1  0
  5  6  2  0
  5 11  1  0
  6  7  1  0
  6 22  1  0
  7  8  2  0
  7 23  1  0
  8  9  1  0
  8 10  1  0
 10 11  2  0
 10 24  1  0
 11 12  1  0
 12 25  1  0
 13 14  2  0
 13 18  1  0
 14 15  1  0
 14 26  1  0
 15 16  2  0
 15 27  1  0
 16 17  1  0
 16 28  1  0
 17 18  2  0
 17 29  1  0
M  END

