
     RDKit          3D

 30 30  0  0  0  0  0  0  0  0999 V2000
    0.9081    2.5646   -1.0590 C   0  0  0  0  0  0  0  0  0  0  0  0
    2.4357    2.5525   -1.0293 C   0  0  0  0  0  0  0  0  0  0  0  0
    3.0197    1.1482   -0.8573 C   0  0  1  0  0  0  0  0  0  0  0  0
    2.6456    0.2086   -1.8687 O   0  0  0  0  0  0  0  0  0  0  0  0
    2.9470    0.5640   -3.2007 C   0  0  0  0  0  0  0  0  0  0  0  0
    4.5205    1.1625   -0.6912 C   0  0  0  0  0  0  0  0  0  0  0  0
    5.2829    2.1704   -0.3275 N   0  0  0  0  0  0  0  0  0  0  0  0
    6.5605    1.6671   -0.2566 C   0  0  0  0  0  0  0  0  0  0  0  0
    6.5764    0.3257   -0.5829 C   0  0  0  0  0  0  0  0  0  0  0  0
    7.6931   -0.6674   -0.6924 C   0  0  0  0  0  0  0  0  0  0  0  0
    8.8001   -0.3019    0.1680 N   0  0  0  0  0  0  0  0  0  0  0  0
    9.9356   -1.1983    0.0991 C   0  0  0  0  0  0  0  0  0  0  0  0
    5.2581    0.0199   -0.8533 N   0  0  0  0  0  0  0  0  0  0  0  0
    4.8764   -0.8740   -1.1396 H   0  0  0  0  0  0  0  0  0  0  0  0
    0.5214    3.5858   -1.2007 H   0  0  0  0  0  0  0  0  0  0  0  0
    0.4871    2.1761   -0.1166 H   0  0  0  0  0  0  0  0  0  0  0  0
    0.5140    1.9359   -1.8728 H   0  0  0  0  0  0  0  0  0  0  0  0
    2.8202    3.1629   -0.1977 H   0  0  0  0  0  0  0  0  0  0  0  0
    2.8508    3.0168   -1.9391 H   0  0  0  0  0  0  0  0  0  0  0  0
    2.5774    0.7094    0.0565 H   0  0  0  0  0  0  0  0  0  0  0  0
    2.7398   -0.3199   -3.8225 H   0  0  0  0  0  0  0  0  0  0  0  0
    4.0085    0.8468   -3.3342 H   0  0  0  0  0  0  0  0  0  0  0  0
    2.3211    1.3967   -3.5696 H   0  0  0  0  0  0  0  0  0  0  0  0
    7.4147    2.2826    0.0190 H   0  0  0  0  0  0  0  0  0  0  0  0
    8.0722   -0.7036   -1.7330 H   0  0  0  0  0  0  0  0  0  0  0  0
    7.2915   -1.6922   -0.4939 H   0  0  0  0  0  0  0  0  0  0  0  0
    8.4720   -0.1993    1.1272 H   0  0  0  0  0  0  0  0  0  0  0  0
   10.3790   -1.1682   -0.9110 H   0  0  0  0  0  0  0  0  0  0  0  0
    9.6981   -2.2644    0.3187 H   0  0  0  0  0  0  0  0  0  0  0  0
   10.7132   -0.8733    0.8075 H   0  0  0  0  0  0  0  0  0  0  0  0
  1  2  1  0
  1 15  1  0
  1 16  1  0
  1 17  1  0
  2  3  1  0
  2 18  1  0
  2 19  1  0
  3  4  1  0
  3  6  1  0
  3 20  1  1
  4  5  1  0
  5 21  1  0
  5 22  1  0
  5 23  1  0
  6  7  2  0
  6 13  1  0
  7  8  1  0
  8  9  2  0
  8 24  1  0
  9 10  1  0
  9 13  1  0
 10 11  1  0
 10 25  1  0
 10 26  1  0
 11 12  1  0
 11 27  1  0
 12 28  1  0
 12 29  1  0
 12 30  1  0
 13 14  1  0
M  END

