
     RDKit          3D

 51 53  0  0  0  0  0  0  0  0999 V2000
    2.2574    1.4830   -2.4394 O   0  0  0  0  0  0  0  0  0  0  0  0
    2.9872    1.3575   -1.4652 C   0  0  0  0  0  0  0  0  0  0  0  0
    2.5507    1.6246   -0.1960 N   0  0  0  0  0  0  0  0  0  0  0  0
    1.1652    2.0171    0.0681 C   0  0  1  0  0  0  0  0  0  0  0  0
    0.8213    1.7945    1.5474 C   0  0  0  0  0  0  0  0  0  0  0  0
    1.5126    2.8034    2.4700 C   0  0  0  0  0  0  0  0  0  0  0  0
    1.2393    4.1727    2.0455 N   0  0  0  0  0  0  0  0  0  0  0  0
    1.1202    5.1298    3.0507 C   0  0  0  0  0  0  0  0  0  0  0  0
    1.1817    4.8314    4.2357 O   0  0  0  0  0  0  0  0  0  0  0  0
    0.9124    6.4292    2.6344 N   0  0  0  0  0  0  0  0  0  0  0  0
    0.7421    7.5102    3.5838 C   0  0  0  0  0  0  0  0  0  0  0  0
    1.7007    8.6927    3.3409 C   0  0  0  0  0  0  0  0  0  0  0  0
    3.1666    8.3406    3.4640 C   0  0  0  0  0  0  0  0  0  0  0  0
    3.9586    8.1134    2.3282 C   0  0  0  0  0  0  0  0  0  0  0  0
    5.3060    7.7571    2.4370 C   0  0  0  0  0  0  0  0  0  0  0  0
    5.8642    7.6247    3.7051 C   0  0  0  0  0  0  0  0  0  0  0  0
    7.1580    7.2845    3.8212 F   0  0  0  0  0  0  0  0  0  0  0  0
    5.1109    7.8418    4.8568 C   0  0  0  0  0  0  0  0  0  0  0  0
    3.7673    8.1972    4.7260 C   0  0  0  0  0  0  0  0  0  0  0  0
    1.6118    4.4508    0.6600 C   0  0  0  0  0  0  0  0  0  0  0  0
    0.9107    3.4904   -0.3026 C   0  0  0  0  0  0  0  0  0  0  0  0
    4.4149    0.8917   -1.6015 C   0  0  0  0  0  0  0  0  0  0  0  0
    5.4025    1.1152   -0.6283 C   0  0  0  0  0  0  0  0  0  0  0  0
    6.7098    0.6642   -0.8294 C   0  0  0  0  0  0  0  0  0  0  0  0
    7.0431   -0.0138   -2.0056 C   0  0  0  0  0  0  0  0  0  0  0  0
    6.0677   -0.2288   -2.9857 C   0  0  0  0  0  0  0  0  0  0  0  0
    4.7645    0.2281   -2.7880 C   0  0  0  0  0  0  0  0  0  0  0  0
    3.1311    1.3439    0.5839 H   0  0  0  0  0  0  0  0  0  0  0  0
    0.5220    1.3892   -0.5696 H   0  0  0  0  0  0  0  0  0  0  0  0
    1.0827    0.7667    1.8518 H   0  0  0  0  0  0  0  0  0  0  0  0
   -0.2695    1.8960    1.6647 H   0  0  0  0  0  0  0  0  0  0  0  0
    2.6092    2.6244    2.4887 H   0  0  0  0  0  0  0  0  0  0  0  0
    1.1687    2.6982    3.5054 H   0  0  0  0  0  0  0  0  0  0  0  0
    0.6539    6.6058    1.6737 H   0  0  0  0  0  0  0  0  0  0  0  0
    0.9078    7.0753    4.5790 H   0  0  0  0  0  0  0  0  0  0  0  0
   -0.2986    7.8854    3.5629 H   0  0  0  0  0  0  0  0  0  0  0  0
    1.4417    9.4828    4.0665 H   0  0  0  0  0  0  0  0  0  0  0  0
    1.5061    9.1201    2.3417 H   0  0  0  0  0  0  0  0  0  0  0  0
    3.5178    8.2237    1.3336 H   0  0  0  0  0  0  0  0  0  0  0  0
    5.9275    7.5848    1.5560 H   0  0  0  0  0  0  0  0  0  0  0  0
    5.5825    7.7313    5.8352 H   0  0  0  0  0  0  0  0  0  0  0  0
    3.1739    8.3667    5.6290 H   0  0  0  0  0  0  0  0  0  0  0  0
    2.7107    4.3579    0.5398 H   0  0  0  0  0  0  0  0  0  0  0  0
    1.3649    5.4843    0.3869 H   0  0  0  0  0  0  0  0  0  0  0  0
    1.2442    3.6671   -1.3358 H   0  0  0  0  0  0  0  0  0  0  0  0
   -0.1768    3.6732   -0.2691 H   0  0  0  0  0  0  0  0  0  0  0  0
    5.1693    1.6709    0.2837 H   0  0  0  0  0  0  0  0  0  0  0  0
    7.4717    0.8509   -0.0685 H   0  0  0  0  0  0  0  0  0  0  0  0
    8.0653   -0.3680   -2.1616 H   0  0  0  0  0  0  0  0  0  0  0  0
    6.3268   -0.7521   -3.9096 H   0  0  0  0  0  0  0  0  0  0  0  0
    3.9904    0.0850   -3.5443 H   0  0  0  0  0  0  0  0  0  0  0  0
  1  2  2  0
  2  3  1  0
  2 22  1  0
  3  4  1  0
  3 28  1  0
  4  5  1  0
  4 21  1  0
  4 29  1  6
  5  6  1  0
  5 30  1  0
  5 31  1  0
  6  7  1  0
  6 32  1  0
  6 33  1  0
  7  8  1  0
  7 20  1  0
  8  9  2  0
  8 10  1  0
 10 11  1  0
 10 34  1  0
 11 12  1  0
 11 35  1  0
 11 36  1  0
 12 13  1  0
 12 37  1  0
 12 38  1  0
 13 14  2  0
 13 19  1  0
 14 15  1  0
 14 39  1  0
 15 16  2  0
 15 40  1  0
 16 17  1  0
 16 18  1  0
 18 19  2  0
 18 41  1  0
 19 42  1  0
 20 21  1  0
 20 43  1  0
 20 44  1  0
 21 45  1  0
 21 46  1  0
 22 23  2  0
 22 27  1  0
 23 24  1  0
 23 47  1  0
 24 25  2  0
 24 48  1  0
 25 26  1  0
 25 49  1  0
 26 27  2  0
 26 50  1  0
 27 51  1  0
M  END

