
     RDKit          3D

 54 56  0  0  0  0  0  0  0  0999 V2000
    6.8819   -4.4989   -7.0173 C   0  0  0  0  0  0  0  0  0  0  0  0
    5.8047   -4.1464   -6.0223 C   0  0  0  0  0  0  0  0  0  0  0  0
    4.5904   -5.0416   -6.0722 C   0  0  0  0  0  0  0  0  0  0  0  0
    5.8610   -3.1161   -5.1524 C   0  0  0  0  0  0  0  0  0  0  0  0
    6.9679   -2.1451   -4.9868 C   0  0  2  0  0  0  0  0  0  0  0  0
    7.8796   -2.3880   -5.5400 H   0  0  0  0  0  0  0  0  0  0  0  0
    7.2383   -1.4838   -3.6150 C   0  0  2  0  0  0  0  0  0  0  0  0
    8.2978   -1.3257   -3.4030 H   0  0  0  0  0  0  0  0  0  0  0  0
    6.4087   -1.8537   -2.4139 C   0  0  0  0  0  0  0  0  0  0  0  0
    5.2060   -1.6259   -2.3398 O   0  0  0  0  0  0  0  0  0  0  0  0
    7.0559   -2.4714   -1.3615 N   0  0  0  0  0  0  0  0  0  0  0  0
    6.2501   -2.7352   -0.1740 C   0  0  0  0  0  0  0  0  0  0  0  0
    8.4066   -3.0554   -1.4200 C   0  0  1  0  0  0  0  0  0  0  0  0
    8.7323   -2.9785   -2.4650 H   0  0  0  0  0  0  0  0  0  0  0  0
    9.4045   -2.2606   -0.5705 C   0  0  0  0  0  0  0  0  0  0  0  0
    8.3589   -4.5581   -1.1235 C   0  0  0  0  0  0  0  0  0  0  0  0
    7.5925   -5.3877   -1.9602 C   0  0  0  0  0  0  0  0  0  0  0  0
    7.5195   -6.7626   -1.7509 C   0  0  0  0  0  0  0  0  0  0  0  0
    8.2104   -7.3404   -0.6756 C   0  0  0  0  0  0  0  0  0  0  0  0
    8.1334   -8.7379   -0.4335 N   0  0  0  0  0  0  0  0  0  0  0  0
    7.2081   -9.6446   -0.8597 C   0  0  0  0  0  0  0  0  0  0  0  0
    7.4933  -10.8422   -0.3954 N   0  0  0  0  0  0  0  0  0  0  0  0
    8.6240  -10.6228    0.3308 C   0  0  0  0  0  0  0  0  0  0  0  0
    9.0457   -9.3714    0.3400 N   0  0  0  0  0  0  0  0  0  0  0  0
    8.9831   -6.5346    0.1655 C   0  0  0  0  0  0  0  0  0  0  0  0
    9.0531   -5.1584   -0.0650 C   0  0  0  0  0  0  0  0  0  0  0  0
    6.7316   -0.6568   -4.7859 C   0  0  1  0  0  0  0  0  0  0  0  0
    7.7680    0.2681   -5.4092 C   0  0  0  0  0  0  0  0  0  0  0  0
    5.3289   -0.0743   -4.8393 C   0  0  0  0  0  0  0  0  0  0  0  0
    6.4930   -4.4288   -8.0490 H   0  0  0  0  0  0  0  0  0  0  0  0
    7.2107   -5.5451   -6.8841 H   0  0  0  0  0  0  0  0  0  0  0  0
    7.7697   -3.8558   -6.9531 H   0  0  0  0  0  0  0  0  0  0  0  0
    4.8639   -6.0969   -5.8897 H   0  0  0  0  0  0  0  0  0  0  0  0
    4.1198   -5.0158   -7.0719 H   0  0  0  0  0  0  0  0  0  0  0  0
    3.8317   -4.7504   -5.3309 H   0  0  0  0  0  0  0  0  0  0  0  0
    5.0037   -2.9675   -4.4892 H   0  0  0  0  0  0  0  0  0  0  0  0
    5.6046   -1.8722    0.0334 H   0  0  0  0  0  0  0  0  0  0  0  0
    6.9087   -2.9161    0.6859 H   0  0  0  0  0  0  0  0  0  0  0  0
    5.5980   -3.6159   -0.3030 H   0  0  0  0  0  0  0  0  0  0  0  0
    9.4197   -1.2121   -0.9034 H   0  0  0  0  0  0  0  0  0  0  0  0
   10.4230   -2.6667   -0.6686 H   0  0  0  0  0  0  0  0  0  0  0  0
    9.1389   -2.2655    0.4979 H   0  0  0  0  0  0  0  0  0  0  0  0
    7.0471   -4.9512   -2.8018 H   0  0  0  0  0  0  0  0  0  0  0  0
    6.9393   -7.3806   -2.4380 H   0  0  0  0  0  0  0  0  0  0  0  0
    6.3525   -9.3793   -1.4782 H   0  0  0  0  0  0  0  0  0  0  0  0
    9.1541  -11.4090    0.8684 H   0  0  0  0  0  0  0  0  0  0  0  0
    9.5243   -6.9978    0.9901 H   0  0  0  0  0  0  0  0  0  0  0  0
    9.6645   -4.5542    0.6070 H   0  0  0  0  0  0  0  0  0  0  0  0
    8.7789   -0.1700   -5.3936 H   0  0  0  0  0  0  0  0  0  0  0  0
    7.8089    1.2301   -4.8707 H   0  0  0  0  0  0  0  0  0  0  0  0
    7.5125    0.4843   -6.4601 H   0  0  0  0  0  0  0  0  0  0  0  0
    4.5825   -0.7095   -4.3552 H   0  0  0  0  0  0  0  0  0  0  0  0
    5.0425    0.0958   -5.8910 H   0  0  0  0  0  0  0  0  0  0  0  0
    5.3061    0.9004   -4.3244 H   0  0  0  0  0  0  0  0  0  0  0  0
  1  2  1  0
  1 30  1  0
  1 31  1  0
  1 32  1  0
  2  3  1  0
  2  4  2  0
  3 33  1  0
  3 34  1  0
  3 35  1  0
  4  5  1  0
  4 36  1  0
  5  6  1  6
  5  7  1  0
  5 27  1  0
  7  8  1  1
  7  9  1  0
  7 27  1  0
  9 10  2  0
  9 11  1  0
 11 12  1  0
 11 13  1  0
 12 37  1  0
 12 38  1  0
 12 39  1  0
 13 14  1  6
 13 15  1  0
 13 16  1  0
 15 40  1  0
 15 41  1  0
 15 42  1  0
 16 17  2  0
 16 26  1  0
 17 18  1  0
 17 43  1  0
 18 19  2  0
 18 44  1  0
 19 20  1  0
 19 25  1  0
 20 21  1  0
 20 24  1  0
 21 22  2  0
 21 45  1  0
 22 23  1  0
 23 24  2  0
 23 46  1  0
 25 26  2  0
 25 47  1  0
 26 48  1  0
 27 28  1  6
 27 29  1  0
 28 49  1  0
 28 50  1  0
 28 51  1  0
 29 52  1  0
 29 53  1  0
 29 54  1  0
M  END

