
     RDKit          3D

 71 75  0  0  0  0  0  0  0  0999 V2000
    8.5883    5.2245   -0.4105 C   0  0  0  0  0  0  0  0  0  0  0  0
    9.1754    3.9537    0.1829 C   0  0  0  0  0  0  0  0  0  0  0  0
    9.8870    3.2105   -0.4716 O   0  0  0  0  0  0  0  0  0  0  0  0
    8.8711    3.6781    1.5015 N   0  0  0  0  0  0  0  0  0  0  0  0
    8.0228    4.4449    2.3765 C   0  0  0  0  0  0  0  0  0  0  0  0
    6.9825    3.6165    3.1358 C   0  0  0  0  0  0  0  0  0  0  0  0
    6.0980    4.2198    3.7117 O   0  0  0  0  0  0  0  0  0  0  0  0
    7.0873    2.2295    3.1026 N   0  0  0  0  0  0  0  0  0  0  0  0
    6.0462    1.3920    3.5824 C   0  0  0  0  0  0  0  0  0  0  0  0
    5.0227    1.8288    4.4502 C   0  0  0  0  0  0  0  0  0  0  0  0
    4.0515    0.8999    4.8402 C   0  0  0  0  0  0  0  0  0  0  0  0
    2.9894    1.3049    5.7227 C   0  0  0  0  0  0  0  0  0  0  0  0
    2.1265    1.6187    6.4320 N   0  0  0  0  0  0  0  0  0  0  0  0
    4.1175   -0.4264    4.3768 C   0  0  0  0  0  0  0  0  0  0  0  0
    5.1781   -0.7502    3.5390 C   0  0  0  0  0  0  0  0  0  0  0  0
    6.1052    0.1278    3.1527 N   0  0  0  0  0  0  0  0  0  0  0  0
    8.2471    1.5259    2.4903 C   0  0  2  0  0  0  0  0  0  0  0  0
    7.9001    1.0551    1.5655 H   0  0  0  0  0  0  0  0  0  0  0  0
    8.8116    0.5169    3.5220 C   0  0  0  0  0  0  0  0  0  0  0  0
    8.9728    0.8987    4.6648 O   0  0  0  0  0  0  0  0  0  0  0  0
    9.2019   -0.7427    3.1004 N   0  0  0  0  0  0  0  0  0  0  0  0
    9.7470   -1.5853    4.1420 C   0  0  0  0  0  0  0  0  0  0  0  0
    8.9105   -2.4556    4.8495 C   0  0  0  0  0  0  0  0  0  0  0  0
    9.4334   -3.2461    5.8749 C   0  0  0  0  0  0  0  0  0  0  0  0
   10.7857   -3.1664    6.2155 C   0  0  0  0  0  0  0  0  0  0  0  0
   11.5948   -2.2782    5.5117 C   0  0  0  0  0  0  0  0  0  0  0  0
   12.8932   -2.1804    5.8326 F   0  0  0  0  0  0  0  0  0  0  0  0
   11.0982   -1.4845    4.4820 C   0  0  0  0  0  0  0  0  0  0  0  0
    8.8241   -1.2596    1.7677 C   0  0  2  0  0  0  0  0  0  0  0  0
    7.8003   -0.9177    1.5830 H   0  0  0  0  0  0  0  0  0  0  0  0
    8.8185   -2.8059    1.6925 C   0  0  0  0  0  0  0  0  0  0  0  0
    9.7797   -3.4859    1.9883 O   0  0  0  0  0  0  0  0  0  0  0  0
    7.6457   -3.3171    1.2010 N   0  0  0  0  0  0  0  0  0  0  0  0
    7.4995   -4.7074    0.8511 C   0  0  1  0  0  0  0  0  0  0  0  0
    6.1264   -5.3831    1.1264 C   0  0  0  0  0  0  0  0  0  0  0  0
    6.2414   -6.0501   -0.2512 C   0  0  2  0  0  0  0  0  0  0  0  0
    5.1263   -6.0383   -1.0206 F   0  0  0  0  0  0  0  0  0  0  0  0
    6.6622   -7.3409   -0.1702 F   0  0  0  0  0  0  0  0  0  0  0  0
    7.3652   -5.0885   -0.6563 C   0  0  0  0  0  0  0  0  0  0  0  0
    9.7200   -0.7754    0.6293 C   0  0  0  0  0  0  0  0  0  0  0  0
   11.1174   -0.7851    0.7689 C   0  0  0  0  0  0  0  0  0  0  0  0
   11.9549   -0.3736   -0.2672 C   0  0  0  0  0  0  0  0  0  0  0  0
   11.4069    0.0546   -1.4796 C   0  0  0  0  0  0  0  0  0  0  0  0
   10.0243    0.0549   -1.6557 C   0  0  0  0  0  0  0  0  0  0  0  0
    9.2006   -0.3691   -0.6111 C   0  0  0  0  0  0  0  0  0  0  0  0
    7.4557   -0.3647   -0.9014 Cl  0  0  0  0  0  0  0  0  0  0  0  0
    9.3878    2.4979    2.1538 C   0  0  0  0  0  0  0  0  0  0  0  0
    8.9783    5.3220   -1.4305 H   0  0  0  0  0  0  0  0  0  0  0  0
    8.8667    6.1180    0.1698 H   0  0  0  0  0  0  0  0  0  0  0  0
    7.4881    5.1805   -0.4549 H   0  0  0  0  0  0  0  0  0  0  0  0
    7.4440    5.2003    1.8332 H   0  0  0  0  0  0  0  0  0  0  0  0
    8.6098    4.9857    3.1453 H   0  0  0  0  0  0  0  0  0  0  0  0
    4.9927    2.8550    4.7990 H   0  0  0  0  0  0  0  0  0  0  0  0
    3.3742   -1.1687    4.6692 H   0  0  0  0  0  0  0  0  0  0  0  0
    5.2899   -1.7719    3.1583 H   0  0  0  0  0  0  0  0  0  0  0  0
    7.8509   -2.5099    4.5945 H   0  0  0  0  0  0  0  0  0  0  0  0
    8.7794   -3.9291    6.4218 H   0  0  0  0  0  0  0  0  0  0  0  0
   11.2184   -3.7705    7.0149 H   0  0  0  0  0  0  0  0  0  0  0  0
   11.7644   -0.7904    3.9695 H   0  0  0  0  0  0  0  0  0  0  0  0
    6.9605   -2.6613    0.8393 H   0  0  0  0  0  0  0  0  0  0  0  0
    8.3294   -5.2424    1.3292 H   0  0  0  0  0  0  0  0  0  0  0  0
    5.2980   -4.6591    1.1334 H   0  0  0  0  0  0  0  0  0  0  0  0
    6.0451   -6.0570    1.9906 H   0  0  0  0  0  0  0  0  0  0  0  0
    6.9722   -4.2579   -1.2609 H   0  0  0  0  0  0  0  0  0  0  0  0
    8.2366   -5.5376   -1.1526 H   0  0  0  0  0  0  0  0  0  0  0  0
   11.5439   -1.1377    1.7082 H   0  0  0  0  0  0  0  0  0  0  0  0
   13.0381   -0.3887   -0.1275 H   0  0  0  0  0  0  0  0  0  0  0  0
   12.0536    0.3943   -2.2916 H   0  0  0  0  0  0  0  0  0  0  0  0
    9.5758    0.3929   -2.5904 H   0  0  0  0  0  0  0  0  0  0  0  0
   10.0994    2.0041    1.4816 H   0  0  0  0  0  0  0  0  0  0  0  0
    9.9056    2.7856    3.0853 H   0  0  0  0  0  0  0  0  0  0  0  0
  1  2  1  0
  1 48  1  0
  1 49  1  0
  1 50  1  0
  2  3  2  0
  2  4  1  0
  4  5  1  0
  4 47  1  0
  5  6  1  0
  5 51  1  0
  5 52  1  0
  6  7  2  0
  6  8  1  0
  8  9  1  0
  8 17  1  0
  9 10  2  0
  9 16  1  0
 10 11  1  0
 10 53  1  0
 11 12  1  0
 11 14  2  0
 12 13  3  0
 14 15  1  0
 14 54  1  0
 15 16  2  0
 15 55  1  0
 17 18  1  6
 17 19  1  0
 17 47  1  0
 19 20  2  0
 19 21  1  0
 21 22  1  0
 21 29  1  0
 22 23  2  0
 22 28  1  0
 23 24  1  0
 23 56  1  0
 24 25  2  0
 24 57  1  0
 25 26  1  0
 25 58  1  0
 26 27  1  0
 26 28  2  0
 28 59  1  0
 29 30  1  6
 29 31  1  0
 29 40  1  0
 31 32  2  0
 31 33  1  0
 33 34  1  0
 33 60  1  0
 34 35  1  0
 34 39  1  0
 34 61  1  1
 35 36  1  0
 35 62  1  0
 35 63  1  0
 36 37  1  6
 36 38  1  0
 36 39  1  0
 39 64  1  0
 39 65  1  0
 40 41  2  0
 40 45  1  0
 41 42  1  0
 41 66  1  0
 42 43  2  0
 42 67  1  0
 43 44  1  0
 43 68  1  0
 44 45  2  0
 44 69  1  0
 45 46  1  0
 47 70  1  0
 47 71  1  0
M  END

