
     RDKit          3D

 54 56  0  0  0  0  0  0  0  0999 V2000
    1.2047   -0.5402    0.2800 C   0  0  0  0  0  0  0  0  0  0  0  0
    2.7257   -0.4294    0.2014 C   0  0  2  0  0  0  0  0  0  0  0  0
    3.4681   -1.7455    0.5711 C   0  0  0  0  0  0  0  0  0  0  0  0
    4.0760   -1.4679    1.9273 C   0  0  0  0  0  0  0  0  0  0  0  0
    4.7219   -2.3183    2.8096 C   0  0  0  0  0  0  0  0  0  0  0  0
    5.2441   -1.8053    4.0140 C   0  0  0  0  0  0  0  0  0  0  0  0
    5.9359   -2.7521    4.9269 C   0  0  0  0  0  0  0  0  0  0  0  0
    6.0979   -3.9303    4.7043 O   0  0  0  0  0  0  0  0  0  0  0  0
    6.3549   -2.1582    6.0715 O   0  0  0  0  0  0  0  0  0  0  0  0
    7.0818   -2.9717    6.9711 C   0  0  0  0  0  0  0  0  0  0  0  0
    8.5258   -3.1187    6.4919 C   0  0  0  0  0  0  0  0  0  0  0  0
    8.9423   -2.5771    5.4943 O   0  0  0  0  0  0  0  0  0  0  0  0
    9.3871   -3.9193    7.2461 N   0  0  0  0  0  0  0  0  0  0  0  0
    9.1362   -4.5883    8.4521 C   0  0  0  0  0  0  0  0  0  0  0  0
    8.0827   -4.4836    9.0572 O   0  0  0  0  0  0  0  0  0  0  0  0
   10.1941   -5.3412    8.8860 N   0  0  0  0  0  0  0  0  0  0  0  0
   10.0999   -6.1670   10.0859 C   0  0  0  0  0  0  0  0  0  0  0  0
    9.8052   -7.6284    9.8021 C   0  0  0  0  0  0  0  0  0  0  0  0
   10.7892   -8.6097    9.9835 C   0  0  0  0  0  0  0  0  0  0  0  0
   10.5194   -9.9538    9.7026 C   0  0  0  0  0  0  0  0  0  0  0  0
    9.2585  -10.3293    9.2339 C   0  0  0  0  0  0  0  0  0  0  0  0
    8.2679   -9.3569    9.0510 C   0  0  0  0  0  0  0  0  0  0  0  0
    8.5378   -8.0169    9.3342 C   0  0  0  0  0  0  0  0  0  0  0  0
    5.1024   -0.4397    4.3086 C   0  0  0  0  0  0  0  0  0  0  0  0
    4.4448    0.4286    3.4329 C   0  0  0  0  0  0  0  0  0  0  0  0
    3.9382   -0.1010    2.2401 C   0  0  0  0  0  0  0  0  0  0  0  0
    3.2412    0.5507    1.2066 N   0  0  0  0  0  0  0  0  0  0  0  0
    3.3351    2.1987    0.8703 S   0  0  1  0  0  0  0  0  0  0  0  0
    5.0221    2.4547    0.2877 C   0  0  0  0  0  0  0  0  0  0  0  0
    2.4323    2.4300   -0.2565 O   0  0  0  0  0  0  0  0  0  0  0  0
    3.1982    2.9318    2.1263 O   0  0  0  0  0  0  0  0  0  0  0  0
    0.8379   -1.2624   -0.4673 H   0  0  0  0  0  0  0  0  0  0  0  0
    0.7425    0.4363    0.0793 H   0  0  0  0  0  0  0  0  0  0  0  0
    0.8903   -0.8835    1.2787 H   0  0  0  0  0  0  0  0  0  0  0  0
    3.0057   -0.0823   -0.8043 H   0  0  0  0  0  0  0  0  0  0  0  0
    4.2516   -1.9899   -0.1668 H   0  0  0  0  0  0  0  0  0  0  0  0
    2.7706   -2.5974    0.5891 H   0  0  0  0  0  0  0  0  0  0  0  0
    4.8481   -3.3818    2.5954 H   0  0  0  0  0  0  0  0  0  0  0  0
    6.6232   -3.9636    7.0821 H   0  0  0  0  0  0  0  0  0  0  0  0
    7.0577   -2.4802    7.9520 H   0  0  0  0  0  0  0  0  0  0  0  0
   10.3185   -3.9565    6.8395 H   0  0  0  0  0  0  0  0  0  0  0  0
   10.9482   -5.5467    8.2404 H   0  0  0  0  0  0  0  0  0  0  0  0
    9.2989   -5.7265   10.6954 H   0  0  0  0  0  0  0  0  0  0  0  0
   11.0417   -6.0758   10.6501 H   0  0  0  0  0  0  0  0  0  0  0  0
   11.7777   -8.3217   10.3547 H   0  0  0  0  0  0  0  0  0  0  0  0
   11.2968  -10.7077    9.8516 H   0  0  0  0  0  0  0  0  0  0  0  0
    9.0445  -11.3784    9.0142 H   0  0  0  0  0  0  0  0  0  0  0  0
    7.2775   -9.6465    8.6906 H   0  0  0  0  0  0  0  0  0  0  0  0
    7.7621   -7.2582    9.1993 H   0  0  0  0  0  0  0  0  0  0  0  0
    5.5088   -0.0556    5.2447 H   0  0  0  0  0  0  0  0  0  0  0  0
    4.3114    1.4826    3.6734 H   0  0  0  0  0  0  0  0  0  0  0  0
    5.1714    1.8838   -0.6378 H   0  0  0  0  0  0  0  0  0  0  0  0
    5.7228    2.1416    1.0729 H   0  0  0  0  0  0  0  0  0  0  0  0
    5.1174    3.5322    0.0958 H   0  0  0  0  0  0  0  0  0  0  0  0
  1  2  1  0
  1 32  1  0
  1 33  1  0
  1 34  1  0
  2  3  1  0
  2 27  1  0
  2 35  1  6
  3  4  1  0
  3 36  1  0
  3 37  1  0
  4  5  2  0
  4 26  1  0
  5  6  1  0
  5 38  1  0
  6  7  1  0
  6 24  2  0
  7  8  2  0
  7  9  1  0
  9 10  1  0
 10 11  1  0
 10 39  1  0
 10 40  1  0
 11 12  2  0
 11 13  1  0
 13 14  1  0
 13 41  1  0
 14 15  2  0
 14 16  1  0
 16 17  1  0
 16 42  1  0
 17 18  1  0
 17 43  1  0
 17 44  1  0
 18 19  2  0
 18 23  1  0
 19 20  1  0
 19 45  1  0
 20 21  2  0
 20 46  1  0
 21 22  1  0
 21 47  1  0
 22 23  2  0
 22 48  1  0
 23 49  1  0
 24 25  1  0
 24 50  1  0
 25 26  2  0
 25 51  1  0
 26 27  1  0
 27 28  1  0
 28 29  1  6
 28 30  2  0
 28 31  2  0
 29 52  1  0
 29 53  1  0
 29 54  1  0
M  END

