
     RDKit          3D

 48 49  0  0  0  0  0  0  0  0999 V2000
   -0.1128    1.3448    9.2729 C   0  0  0  0  0  0  0  0  0  0  0  0
    1.1995    0.8829    9.0516 O   0  0  0  0  0  0  0  0  0  0  0  0
    1.4992   -0.3797    9.6098 C   0  0  0  0  0  0  0  0  0  0  0  0
    0.9608   -1.5411    8.7732 C   0  0  0  0  0  0  0  0  0  0  0  0
    1.4148   -1.3937    7.4100 N   0  0  0  0  0  0  0  0  0  0  0  0
    1.0776   -2.2889    6.4021 C   0  0  0  0  0  0  0  0  0  0  0  0
    0.4320   -3.5106    6.6764 C   0  0  0  0  0  0  0  0  0  0  0  0
    0.1296   -4.4069    5.6478 C   0  0  0  0  0  0  0  0  0  0  0  0
    0.4540   -4.1032    4.3266 C   0  0  0  0  0  0  0  0  0  0  0  0
    1.0986   -2.8919    4.0469 C   0  0  0  0  0  0  0  0  0  0  0  0
    1.4252   -1.9848    5.0555 C   0  0  0  0  0  0  0  0  0  0  0  0
    2.1548   -0.6826    4.7752 C   0  0  0  0  0  0  0  0  0  0  0  0
    2.6249   -0.5214    3.4179 N   0  0  0  0  0  0  0  0  0  0  0  0
    2.1673    0.4478    2.5805 C   0  0  0  0  0  0  0  0  0  0  0  0
    1.3578    1.3076    2.8887 O   0  0  0  0  0  0  0  0  0  0  0  0
    2.7231    0.3532    1.1409 C   0  0  2  0  0  0  0  0  0  0  0  0
    1.8705   -0.0415    0.5601 H   0  0  0  0  0  0  0  0  0  0  0  0
    3.7635   -0.6012    1.0092 O   0  0  0  0  0  0  0  0  0  0  0  0
    3.0564    1.7274    0.5432 C   0  0  0  0  0  0  0  0  0  0  0  0
    4.3777    2.3427    0.9648 C   0  0  0  0  0  0  0  0  0  0  0  0
    4.9606    2.0899    2.2211 C   0  0  0  0  0  0  0  0  0  0  0  0
    6.1707    2.6710    2.6095 C   0  0  0  0  0  0  0  0  0  0  0  0
    6.8374    3.5378    1.7426 C   0  0  0  0  0  0  0  0  0  0  0  0
    6.2863    3.8174    0.4913 C   0  0  0  0  0  0  0  0  0  0  0  0
    5.0771    3.2257    0.1155 C   0  0  0  0  0  0  0  0  0  0  0  0
    4.4344    3.6371   -1.4663 Cl  0  0  0  0  0  0  0  0  0  0  0  0
   -0.8804    0.7090    8.7916 H   0  0  0  0  0  0  0  0  0  0  0  0
   -0.1833    2.3541    8.8423 H   0  0  0  0  0  0  0  0  0  0  0  0
   -0.3444    1.4055   10.3547 H   0  0  0  0  0  0  0  0  0  0  0  0
    1.1165   -0.4578   10.6465 H   0  0  0  0  0  0  0  0  0  0  0  0
    2.5987   -0.4394    9.6451 H   0  0  0  0  0  0  0  0  0  0  0  0
   -0.1468   -1.5911    8.8456 H   0  0  0  0  0  0  0  0  0  0  0  0
    1.3397   -2.4827    9.2085 H   0  0  0  0  0  0  0  0  0  0  0  0
    1.4830   -0.4181    7.1373 H   0  0  0  0  0  0  0  0  0  0  0  0
    0.1588   -3.7648    7.7012 H   0  0  0  0  0  0  0  0  0  0  0  0
   -0.3719   -5.3479    5.8897 H   0  0  0  0  0  0  0  0  0  0  0  0
    0.2116   -4.7963    3.5180 H   0  0  0  0  0  0  0  0  0  0  0  0
    1.3561   -2.6456    3.0143 H   0  0  0  0  0  0  0  0  0  0  0  0
    3.0045   -0.5957    5.4790 H   0  0  0  0  0  0  0  0  0  0  0  0
    1.4983    0.1842    4.9684 H   0  0  0  0  0  0  0  0  0  0  0  0
    3.2768   -1.1876    3.0144 H   0  0  0  0  0  0  0  0  0  0  0  0
    4.6116   -0.1382    1.0735 H   0  0  0  0  0  0  0  0  0  0  0  0
    2.2293    2.4036    0.8184 H   0  0  0  0  0  0  0  0  0  0  0  0
    3.0421    1.6435   -0.5519 H   0  0  0  0  0  0  0  0  0  0  0  0
    4.4555    1.4216    2.9204 H   0  0  0  0  0  0  0  0  0  0  0  0
    6.5862    2.4473    3.5948 H   0  0  0  0  0  0  0  0  0  0  0  0
    7.7833    3.9999    2.0348 H   0  0  0  0  0  0  0  0  0  0  0  0
    6.7852    4.4949   -0.2037 H   0  0  0  0  0  0  0  0  0  0  0  0
  1  2  1  0
  1 27  1  0
  1 28  1  0
  1 29  1  0
  2  3  1  0
  3  4  1  0
  3 30  1  0
  3 31  1  0
  4  5  1  0
  4 32  1  0
  4 33  1  0
  5  6  1  0
  5 34  1  0
  6  7  2  0
  6 11  1  0
  7  8  1  0
  7 35  1  0
  8  9  2  0
  8 36  1  0
  9 10  1  0
  9 37  1  0
 10 11  2  0
 10 38  1  0
 11 12  1  0
 12 13  1  0
 12 39  1  0
 12 40  1  0
 13 14  1  0
 13 41  1  0
 14 15  2  0
 14 16  1  0
 16 17  1  6
 16 18  1  0
 16 19  1  0
 18 42  1  0
 19 20  1  0
 19 43  1  0
 19 44  1  0
 20 21  2  0
 20 25  1  0
 21 22  1  0
 21 45  1  0
 22 23  2  0
 22 46  1  0
 23 24  1  0
 23 47  1  0
 24 25  2  0
 24 48  1  0
 25 26  1  0
M  END

