
     RDKit          3D

 54 57  0  0  0  0  0  0  0  0999 V2000
    9.1817    7.9435   -0.9388 C   0  0  0  0  0  0  0  0  0  0  0  0
    8.7516    7.2036    0.3350 C   0  0  1  0  0  0  0  0  0  0  0  0
    9.0929    8.0281    1.5832 C   0  0  0  0  0  0  0  0  0  0  0  0
    7.2547    6.8358    0.3339 C   0  0  0  0  0  0  0  0  0  0  0  0
    6.7604    5.9416   -0.8156 C   0  0  0  0  0  0  0  0  0  0  0  0
    7.4073    4.5547   -0.9663 C   0  0  0  0  0  0  0  0  0  0  0  0
    7.0507    3.5102    0.1045 C   0  0  0  0  0  0  0  0  0  0  0  0
    7.6214    3.7335    1.4233 N   0  0  0  0  0  0  0  0  0  0  0  0
    6.7641    3.7401    2.6170 C   0  0  0  0  0  0  0  0  0  0  0  0
    7.7545    3.7880    3.8018 C   0  0  0  0  0  0  0  0  0  0  0  0
    9.0278    3.2555    3.1790 C   0  0  0  0  0  0  0  0  0  0  0  0
    8.8749    3.2718    1.7910 C   0  0  0  0  0  0  0  0  0  0  0  0
    9.9298    2.8421    0.9486 C   0  0  0  0  0  0  0  0  0  0  0  0
   11.1161    2.4280    1.5259 C   0  0  0  0  0  0  0  0  0  0  0  0
   11.3205    2.4149    2.9360 C   0  0  0  0  0  0  0  0  0  0  0  0
   12.5537    1.9863    3.5321 C   0  0  0  0  0  0  0  0  0  0  0  0
   12.6678    1.9611    4.9254 C   0  0  0  0  0  0  0  0  0  0  0  0
   11.5862    2.3946    5.7487 C   0  0  0  0  0  0  0  0  0  0  0  0
   10.4084    2.8264    5.2016 C   0  0  0  0  0  0  0  0  0  0  0  0
   10.2302    2.8439    3.7836 C   0  0  0  0  0  0  0  0  0  0  0  0
   13.8925    1.4618    5.6169 C   0  0  0  0  0  0  0  0  0  0  0  0
   13.9883    1.4605    6.8318 O   0  0  0  0  0  0  0  0  0  0  0  0
   15.0068    0.9166    4.7376 C   0  0  0  0  0  0  0  0  0  0  0  0
   15.0671    1.6266    3.3876 C   0  0  0  0  0  0  0  0  0  0  0  0
   13.7195    1.5493    2.6660 C   0  0  0  0  0  0  0  0  0  0  0  0
   10.2491    8.2146   -0.8969 H   0  0  0  0  0  0  0  0  0  0  0  0
    8.6074    8.8781   -1.0662 H   0  0  0  0  0  0  0  0  0  0  0  0
    9.0342    7.3371   -1.8464 H   0  0  0  0  0  0  0  0  0  0  0  0
    9.3333    6.2658    0.3956 H   0  0  0  0  0  0  0  0  0  0  0  0
    8.5430    8.9855    1.5886 H   0  0  0  0  0  0  0  0  0  0  0  0
   10.1688    8.2624    1.6291 H   0  0  0  0  0  0  0  0  0  0  0  0
    8.8294    7.4878    2.5070 H   0  0  0  0  0  0  0  0  0  0  0  0
    6.6686    7.7739    0.3101 H   0  0  0  0  0  0  0  0  0  0  0  0
    7.0182    6.3577    1.2981 H   0  0  0  0  0  0  0  0  0  0  0  0
    6.8902    6.4806   -1.7698 H   0  0  0  0  0  0  0  0  0  0  0  0
    5.6682    5.8076   -0.7075 H   0  0  0  0  0  0  0  0  0  0  0  0
    8.5040    4.6488   -1.0363 H   0  0  0  0  0  0  0  0  0  0  0  0
    7.0849    4.1320   -1.9344 H   0  0  0  0  0  0  0  0  0  0  0  0
    7.3466    2.5076   -0.2638 H   0  0  0  0  0  0  0  0  0  0  0  0
    5.9542    3.4797    0.2194 H   0  0  0  0  0  0  0  0  0  0  0  0
    6.1559    2.8123    2.6537 H   0  0  0  0  0  0  0  0  0  0  0  0
    6.0673    4.5927    2.6024 H   0  0  0  0  0  0  0  0  0  0  0  0
    7.3973    3.2013    4.6617 H   0  0  0  0  0  0  0  0  0  0  0  0
    7.8990    4.8254    4.1562 H   0  0  0  0  0  0  0  0  0  0  0  0
    9.8180    2.8333   -0.1367 H   0  0  0  0  0  0  0  0  0  0  0  0
   11.9163    2.0911    0.8662 H   0  0  0  0  0  0  0  0  0  0  0  0
   11.7386    2.3618    6.8291 H   0  0  0  0  0  0  0  0  0  0  0  0
    9.5900    3.1559    5.8459 H   0  0  0  0  0  0  0  0  0  0  0  0
   14.8037   -0.1615    4.5876 H   0  0  0  0  0  0  0  0  0  0  0  0
   15.9481    0.9853    5.3029 H   0  0  0  0  0  0  0  0  0  0  0  0
   15.8578    1.1920    2.7550 H   0  0  0  0  0  0  0  0  0  0  0  0
   15.3358    2.6863    3.5441 H   0  0  0  0  0  0  0  0  0  0  0  0
   13.5430    0.5106    2.3247 H   0  0  0  0  0  0  0  0  0  0  0  0
   13.7613    2.1601    1.7518 H   0  0  0  0  0  0  0  0  0  0  0  0
  1  2  1  0
  1 26  1  0
  1 27  1  0
  1 28  1  0
  2  3  1  0
  2  4  1  0
  2 29  1  1
  3 30  1  0
  3 31  1  0
  3 32  1  0
  4  5  1  0
  4 33  1  0
  4 34  1  0
  5  6  1  0
  5 35  1  0
  5 36  1  0
  6  7  1  0
  6 37  1  0
  6 38  1  0
  7  8  1  0
  7 39  1  0
  7 40  1  0
  8  9  1  0
  8 12  1  0
  9 10  1  0
  9 41  1  0
  9 42  1  0
 10 11  1  0
 10 43  1  0
 10 44  1  0
 11 12  2  0
 11 20  1  0
 12 13  1  0
 13 14  2  0
 13 45  1  0
 14 15  1  0
 14 46  1  0
 15 16  1  0
 15 20  2  0
 16 17  2  0
 16 25  1  0
 17 18  1  0
 17 21  1  0
 18 19  2  0
 18 47  1  0
 19 20  1  0
 19 48  1  0
 21 22  2  0
 21 23  1  0
 23 24  1  0
 23 49  1  0
 23 50  1  0
 24 25  1  0
 24 51  1  0
 24 52  1  0
 25 53  1  0
 25 54  1  0
M  END

