
     RDKit          3D

 44 45  0  0  0  0  0  0  0  0999 V2000
    2.1376   -1.0378   -1.1039 C   0  0  0  0  0  0  0  0  0  0  0  0
    2.5197   -0.2472    0.1669 C   0  0  1  0  0  0  0  0  0  0  0  0
    3.2003    1.0808   -0.2279 C   0  0  0  0  0  0  0  0  0  0  0  0
    1.2293    0.0698    0.9557 C   0  0  0  0  0  0  0  0  0  0  0  0
    3.6635   -1.2886    1.2883 Si  0  0  2  0  0  4  0  0  0  0  0  0
    5.4680   -1.6554    0.7646 C   0  0  1  0  0  0  0  0  0  0  0  0
    6.3474   -0.3968    0.9281 C   0  0  0  0  0  0  0  0  0  0  0  0
    6.0191   -2.7742    1.6791 C   0  0  0  0  0  0  0  0  0  0  0  0
    5.5300   -2.1421   -0.6990 C   0  0  0  0  0  0  0  0  0  0  0  0
    2.9445   -2.8133    1.5002 O   0  0  0  0  0  0  0  0  0  0  0  0
    2.2476   -3.4633    2.4613 C   0  0  0  0  0  0  0  0  0  0  0  0
    1.9071   -4.6031    2.3087 O   0  0  0  0  0  0  0  0  0  0  0  0
    1.9088   -2.6442    3.7079 C   0  0  0  0  0  0  0  0  0  0  0  0
    3.0855   -2.1182    4.5067 C   0  0  0  0  0  0  0  0  0  0  0  0
    3.3764   -2.6375    5.7768 C   0  0  0  0  0  0  0  0  0  0  0  0
    4.4064   -2.1149    6.5626 C   0  0  0  0  0  0  0  0  0  0  0  0
    5.1628   -1.0423    6.0826 C   0  0  0  0  0  0  0  0  0  0  0  0
    4.8997   -0.5138    4.8175 C   0  0  0  0  0  0  0  0  0  0  0  0
    3.8800   -1.0563    4.0257 C   0  0  0  0  0  0  0  0  0  0  0  0
    3.6395   -0.5165    2.7921 O   0  0  0  0  0  0  0  0  0  0  0  0
    1.4190   -0.4521   -1.7043 H   0  0  0  0  0  0  0  0  0  0  0  0
    1.6622   -2.0006   -0.8599 H   0  0  0  0  0  0  0  0  0  0  0  0
    3.0051   -1.2468   -1.7474 H   0  0  0  0  0  0  0  0  0  0  0  0
    2.4966    1.7060   -0.8058 H   0  0  0  0  0  0  0  0  0  0  0  0
    4.0869    0.9227   -0.8620 H   0  0  0  0  0  0  0  0  0  0  0  0
    3.5114    1.6650    0.6533 H   0  0  0  0  0  0  0  0  0  0  0  0
    0.5503    0.6747    0.3292 H   0  0  0  0  0  0  0  0  0  0  0  0
    1.4367    0.6368    1.8754 H   0  0  0  0  0  0  0  0  0  0  0  0
    0.6813   -0.8456    1.2321 H   0  0  0  0  0  0  0  0  0  0  0  0
    6.3542   -0.0314    1.9665 H   0  0  0  0  0  0  0  0  0  0  0  0
    6.0209    0.4338    0.2834 H   0  0  0  0  0  0  0  0  0  0  0  0
    7.3910   -0.6325    0.6535 H   0  0  0  0  0  0  0  0  0  0  0  0
    6.0102   -2.4893    2.7430 H   0  0  0  0  0  0  0  0  0  0  0  0
    7.0679   -2.9886    1.4069 H   0  0  0  0  0  0  0  0  0  0  0  0
    5.4481   -3.7087    1.5725 H   0  0  0  0  0  0  0  0  0  0  0  0
    5.2412   -1.3559   -1.4142 H   0  0  0  0  0  0  0  0  0  0  0  0
    4.8833   -3.0171   -0.8724 H   0  0  0  0  0  0  0  0  0  0  0  0
    6.5635   -2.4423   -0.9480 H   0  0  0  0  0  0  0  0  0  0  0  0
    1.2891   -3.2922    4.3398 H   0  0  0  0  0  0  0  0  0  0  0  0
    1.2831   -1.7942    3.3839 H   0  0  0  0  0  0  0  0  0  0  0  0
    2.7685   -3.4623    6.1587 H   0  0  0  0  0  0  0  0  0  0  0  0
    4.6089   -2.5373    7.5494 H   0  0  0  0  0  0  0  0  0  0  0  0
    5.9630   -0.6148    6.6920 H   0  0  0  0  0  0  0  0  0  0  0  0
    5.4759    0.3254    4.4225 H   0  0  0  0  0  0  0  0  0  0  0  0
  2  1  1  6
  1 21  1  0
  1 22  1  0
  1 23  1  0
  2  3  1  0
  2  4  1  0
  2  5  1  0
  3 24  1  0
  3 25  1  0
  3 26  1  0
  4 27  1  0
  4 28  1  0
  4 29  1  0
  5  6  1  0
  5 10  1  1
  5 20  1  0
  6  7  1  6
  6  8  1  0
  6  9  1  0
  7 30  1  0
  7 31  1  0
  7 32  1  0
  8 33  1  0
  8 34  1  0
  8 35  1  0
  9 36  1  0
  9 37  1  0
  9 38  1  0
 10 11  1  0
 11 12  2  0
 11 13  1  0
 13 14  1  0
 13 39  1  0
 13 40  1  0
 14 15  2  0
 14 19  1  0
 15 16  1  0
 15 41  1  0
 16 17  2  0
 16 42  1  0
 17 18  1  0
 17 43  1  0
 18 19  2  0
 18 44  1  0
 19 20  1  0
M  END

