
     RDKit          3D

 62 64  0  0  0  0  0  0  0  0999 V2000
    6.1896   -1.9981    0.2357 C   0  0  0  0  0  0  0  0  0  0  0  0
    5.1098   -3.0795    0.2315 C   0  0  0  0  0  0  0  0  0  0  0  0
    3.9298   -2.8413    1.1828 C   0  0  0  0  0  0  0  0  0  0  0  0
    3.0686   -1.6868    0.8786 N   0  0  0  0  0  0  0  0  0  0  0  0
    3.1130   -0.5174    1.7261 C   0  0  0  0  0  0  0  0  0  0  0  0
    3.8617    0.6929    1.1218 C   0  0  0  0  0  0  0  0  0  0  0  0
    4.1621    0.7131   -0.0607 O   0  0  0  0  0  0  0  0  0  0  0  0
    4.1379    1.7458    1.9642 N   0  0  0  0  0  0  0  0  0  0  0  0
    4.7976    2.9318    1.4101 C   0  0  0  0  0  0  0  0  0  0  0  0
    3.8777    4.1551    1.4856 C   0  0  0  0  0  0  0  0  0  0  0  0
    3.2864    4.2254    2.8629 C   0  0  0  0  0  0  0  0  0  0  0  0
    2.5556    5.6471    3.5436 S   0  0  0  0  0  0  0  0  0  0  0  0
    2.1820    4.8140    5.0173 C   0  0  0  0  0  0  0  0  0  0  0  0
    2.5995    3.5106    4.9830 C   0  0  0  0  0  0  0  0  0  0  0  0
    3.2356    3.1680    3.7434 C   0  0  0  0  0  0  0  0  0  0  0  0
    3.7781    1.7965    3.3859 C   0  0  2  0  0  0  0  0  0  0  0  0
    2.9790    1.0677    3.5790 H   0  0  0  0  0  0  0  0  0  0  0  0
    4.9772    1.3567    4.2529 C   0  0  0  0  0  0  0  0  0  0  0  0
    4.5154    1.1325    5.5660 O   0  0  0  0  0  0  0  0  0  0  0  0
    5.3945    0.7041    6.5253 C   0  0  0  0  0  0  0  0  0  0  0  0
    6.7591    0.5046    6.2978 C   0  0  0  0  0  0  0  0  0  0  0  0
    7.5841    0.0592    7.3391 C   0  0  0  0  0  0  0  0  0  0  0  0
    7.0718   -0.1961    8.6130 C   0  0  0  0  0  0  0  0  0  0  0  0
    7.9502   -0.6738    9.7442 C   0  0  0  0  0  0  0  0  0  0  0  0
    5.6942    0.0104    8.8126 C   0  0  0  0  0  0  0  0  0  0  0  0
    4.8400    0.4550    7.8021 C   0  0  0  0  0  0  0  0  0  0  0  0
    3.3692    0.6732    8.0435 C   0  0  0  0  0  0  0  0  0  0  0  0
    2.1671   -1.8406   -0.1582 C   0  0  0  0  0  0  0  0  0  0  0  0
    2.1374   -2.8746   -0.8079 O   0  0  0  0  0  0  0  0  0  0  0  0
    1.2035   -0.6913   -0.4482 C   0  0  0  0  0  0  0  0  0  0  0  0
    0.2706   -1.0023   -1.6144 C   0  0  0  0  0  0  0  0  0  0  0  0
    7.0302   -2.2818   -0.4179 H   0  0  0  0  0  0  0  0  0  0  0  0
    6.6034   -1.8425    1.2487 H   0  0  0  0  0  0  0  0  0  0  0  0
    5.7944   -1.0378   -0.1259 H   0  0  0  0  0  0  0  0  0  0  0  0
    5.5527   -4.0504    0.5193 H   0  0  0  0  0  0  0  0  0  0  0  0
    4.7063   -3.2172   -0.7835 H   0  0  0  0  0  0  0  0  0  0  0  0
    4.3000   -2.7110    2.2134 H   0  0  0  0  0  0  0  0  0  0  0  0
    3.2922   -3.7389    1.1686 H   0  0  0  0  0  0  0  0  0  0  0  0
    3.5789   -0.8075    2.6786 H   0  0  0  0  0  0  0  0  0  0  0  0
    2.0944   -0.1780    1.9827 H   0  0  0  0  0  0  0  0  0  0  0  0
    5.0684    2.6964    0.3749 H   0  0  0  0  0  0  0  0  0  0  0  0
    5.7246    3.1308    1.9748 H   0  0  0  0  0  0  0  0  0  0  0  0
    3.0825    4.0714    0.7231 H   0  0  0  0  0  0  0  0  0  0  0  0
    4.4506    5.0660    1.2453 H   0  0  0  0  0  0  0  0  0  0  0  0
    1.6756    5.3370    5.8272 H   0  0  0  0  0  0  0  0  0  0  0  0
    2.4673    2.8108    5.8070 H   0  0  0  0  0  0  0  0  0  0  0  0
    5.7662    2.1303    4.2384 H   0  0  0  0  0  0  0  0  0  0  0  0
    5.4043    0.4282    3.8300 H   0  0  0  0  0  0  0  0  0  0  0  0
    7.1978    0.6912    5.3175 H   0  0  0  0  0  0  0  0  0  0  0  0
    8.6494   -0.0905    7.1422 H   0  0  0  0  0  0  0  0  0  0  0  0
    8.9881   -0.8251    9.4125 H   0  0  0  0  0  0  0  0  0  0  0  0
    7.5888   -1.6290   10.1607 H   0  0  0  0  0  0  0  0  0  0  0  0
    7.9679    0.0516   10.5755 H   0  0  0  0  0  0  0  0  0  0  0  0
    5.2663   -0.1857    9.8011 H   0  0  0  0  0  0  0  0  0  0  0  0
    3.0807    0.3417    9.0513 H   0  0  0  0  0  0  0  0  0  0  0  0
    2.7552    0.1279    7.3088 H   0  0  0  0  0  0  0  0  0  0  0  0
    3.1017    1.7394    7.9482 H   0  0  0  0  0  0  0  0  0  0  0  0
    1.7990    0.2121   -0.6540 H   0  0  0  0  0  0  0  0  0  0  0  0
    0.6159   -0.4743    0.4628 H   0  0  0  0  0  0  0  0  0  0  0  0
    0.8443   -1.2020   -2.5310 H   0  0  0  0  0  0  0  0  0  0  0  0
   -0.4077   -0.1558   -1.8039 H   0  0  0  0  0  0  0  0  0  0  0  0
   -0.3348   -1.8980   -1.4125 H   0  0  0  0  0  0  0  0  0  0  0  0
  1  2  1  0
  1 32  1  0
  1 33  1  0
  1 34  1  0
  2  3  1  0
  2 35  1  0
  2 36  1  0
  3  4  1  0
  3 37  1  0
  3 38  1  0
  4  5  1  0
  4 28  1  0
  5  6  1  0
  5 39  1  0
  5 40  1  0
  6  7  2  0
  6  8  1  0
  8  9  1  0
  8 16  1  0
  9 10  1  0
  9 41  1  0
  9 42  1  0
 10 11  1  0
 10 43  1  0
 10 44  1  0
 11 12  1  0
 11 15  2  0
 12 13  1  0
 13 14  2  0
 13 45  1  0
 14 15  1  0
 14 46  1  0
 15 16  1  0
 16 17  1  6
 16 18  1  0
 18 19  1  0
 18 47  1  0
 18 48  1  0
 19 20  1  0
 20 21  2  0
 20 26  1  0
 21 22  1  0
 21 49  1  0
 22 23  2  0
 22 50  1  0
 23 24  1  0
 23 25  1  0
 24 51  1  0
 24 52  1  0
 24 53  1  0
 25 26  2  0
 25 54  1  0
 26 27  1  0
 27 55  1  0
 27 56  1  0
 27 57  1  0
 28 29  2  0
 28 30  1  0
 30 31  1  0
 30 58  1  0
 30 59  1  0
 31 60  1  0
 31 61  1  0
 31 62  1  0
M  END

