
     RDKit          3D

 40 42  0  0  0  0  0  0  0  0999 V2000
    1.3478    1.9600    1.1819 C   0  0  0  0  0  0  0  0  0  0  0  0
    1.7648    0.5043    1.0630 C   0  0  0  0  0  0  0  0  0  0  0  0
    1.2603   -0.2197    0.2262 O   0  0  0  0  0  0  0  0  0  0  0  0
    2.8129   -0.0235    2.0001 C   0  0  0  0  0  0  0  0  0  0  0  0
    3.4349    0.7664    2.9823 C   0  0  0  0  0  0  0  0  0  0  0  0
    4.3982    0.2211    3.8296 C   0  0  0  0  0  0  0  0  0  0  0  0
    4.7596   -1.1220    3.6878 C   0  0  0  0  0  0  0  0  0  0  0  0
    5.7629   -1.5841    4.5217 O   0  0  0  0  0  0  0  0  0  0  0  0
    5.6200   -3.0975    5.2447 S   0  0  1  0  0  0  0  0  0  0  0  0
    4.3090   -3.1609    5.8781 O   0  0  0  0  0  0  0  0  0  0  0  0
    6.0356   -4.1001    4.2697 O   0  0  0  0  0  0  0  0  0  0  0  0
    6.8932   -2.8834    6.4618 C   0  0  0  0  0  0  0  0  0  0  0  0
    8.2085   -3.2351    6.1467 C   0  0  0  0  0  0  0  0  0  0  0  0
    9.1862   -3.0627    7.1220 C   0  0  0  0  0  0  0  0  0  0  0  0
    8.8747   -2.5437    8.3887 C   0  0  0  0  0  0  0  0  0  0  0  0
    7.5333   -2.1930    8.6893 C   0  0  0  0  0  0  0  0  0  0  0  0
    6.5472   -2.3762    7.7143 C   0  0  0  0  0  0  0  0  0  0  0  0
    7.1521   -1.5992    9.8538 O   0  0  0  0  0  0  0  0  0  0  0  0
    7.4589   -2.2226   11.0980 C   0  0  0  0  0  0  0  0  0  0  0  0
    8.9234   -2.0906   11.4876 C   0  0  0  0  0  0  0  0  0  0  0  0
    9.8640   -2.8542   10.5678 C   0  0  0  0  0  0  0  0  0  0  0  0
    9.9125   -2.3343    9.2400 O   0  0  0  0  0  0  0  0  0  0  0  0
    4.1587   -1.9287    2.7115 C   0  0  0  0  0  0  0  0  0  0  0  0
    3.1884   -1.3735    1.8831 C   0  0  0  0  0  0  0  0  0  0  0  0
    0.5787    2.1677    0.4273 H   0  0  0  0  0  0  0  0  0  0  0  0
    2.2063    2.6327    1.0232 H   0  0  0  0  0  0  0  0  0  0  0  0
    0.9440    2.1757    2.1844 H   0  0  0  0  0  0  0  0  0  0  0  0
    3.1663    1.8176    3.1017 H   0  0  0  0  0  0  0  0  0  0  0  0
    4.8832    0.8198    4.6026 H   0  0  0  0  0  0  0  0  0  0  0  0
    8.4502   -3.6451    5.1654 H   0  0  0  0  0  0  0  0  0  0  0  0
   10.2296   -3.3166    6.9256 H   0  0  0  0  0  0  0  0  0  0  0  0
    5.5171   -2.1059    7.9494 H   0  0  0  0  0  0  0  0  0  0  0  0
    7.1592   -3.2879   11.0643 H   0  0  0  0  0  0  0  0  0  0  0  0
    6.8186   -1.7162   11.8348 H   0  0  0  0  0  0  0  0  0  0  0  0
    9.0510   -2.4761   12.5147 H   0  0  0  0  0  0  0  0  0  0  0  0
    9.2054   -1.0245   11.5000 H   0  0  0  0  0  0  0  0  0  0  0  0
    9.5878   -3.9257   10.5333 H   0  0  0  0  0  0  0  0  0  0  0  0
   10.8985   -2.7852   10.9341 H   0  0  0  0  0  0  0  0  0  0  0  0
    4.4600   -2.9715    2.6048 H   0  0  0  0  0  0  0  0  0  0  0  0
    2.7011   -1.9758    1.1139 H   0  0  0  0  0  0  0  0  0  0  0  0
  1  2  1  0
  1 25  1  0
  1 26  1  0
  1 27  1  0
  2  3  2  0
  2  4  1  0
  4  5  2  0
  4 24  1  0
  5  6  1  0
  5 28  1  0
  6  7  2  0
  6 29  1  0
  7  8  1  0
  7 23  1  0
  9  8  1  6
  9 10  2  0
  9 11  2  0
  9 12  1  0
 12 13  2  0
 12 17  1  0
 13 14  1  0
 13 30  1  0
 14 15  2  0
 14 31  1  0
 15 16  1  0
 15 22  1  0
 16 17  2  0
 16 18  1  0
 17 32  1  0
 18 19  1  0
 19 20  1  0
 19 33  1  0
 19 34  1  0
 20 21  1  0
 20 35  1  0
 20 36  1  0
 21 22  1  0
 21 37  1  0
 21 38  1  0
 23 24  2  0
 23 39  1  0
 24 40  1  0
M  END

