
     RDKit          3D

 39 41  0  0  0  0  0  0  0  0999 V2000
    2.1828    2.6197    1.9724 C   0  0  0  0  0  0  0  0  0  0  0  0
    3.0875    3.5337    1.3483 O   0  0  0  0  0  0  0  0  0  0  0  0
    4.1655    3.8756    2.0576 C   0  0  0  0  0  0  0  0  0  0  0  0
    4.3484    3.6019    3.2171 O   0  0  0  0  0  0  0  0  0  0  0  0
    5.1132    4.7355    1.2704 C   0  0  0  0  0  0  0  0  0  0  0  0
    5.8710    4.2887    0.2572 C   0  0  0  0  0  0  0  0  0  0  0  0
    7.0312    5.2758   -0.6547 S   0  0  0  0  0  0  0  0  0  0  0  0
    7.3534    3.8338   -1.6461 C   0  0  0  0  0  0  0  0  0  0  0  0
    8.2290    3.9201   -2.6666 N   0  0  0  0  0  0  0  0  0  0  0  0
    9.0288    5.0225   -2.8297 N   0  0  0  0  0  0  0  0  0  0  0  0
    9.9928    4.7238   -3.6356 C   0  0  0  0  0  0  0  0  0  0  0  0
   11.0219    5.6966   -4.0142 C   0  0  0  0  0  0  0  0  0  0  0  0
   10.9447    7.0309   -3.5641 C   0  0  0  0  0  0  0  0  0  0  0  0
   11.9274    7.9509   -3.9182 C   0  0  0  0  0  0  0  0  0  0  0  0
   13.0037    7.5597   -4.7259 C   0  0  0  0  0  0  0  0  0  0  0  0
   13.0898    6.2407   -5.1778 C   0  0  0  0  0  0  0  0  0  0  0  0
   12.1055    5.3143   -4.8263 C   0  0  0  0  0  0  0  0  0  0  0  0
    9.9685    3.2749   -4.0808 C   0  0  0  0  0  0  0  0  0  0  0  0
    8.6234    2.7634   -3.5327 C   0  0  1  0  0  0  0  0  0  0  0  0
    8.7407    1.5833   -2.8436 O   0  0  0  0  0  0  0  0  0  0  0  0
    7.5857    2.6327   -4.6852 C   0  0  1  0  0  0  0  0  0  0  0  0
    7.4407    3.8066   -5.3245 F   0  0  0  0  0  0  0  0  0  0  0  0
    8.0146    1.7308   -5.5775 F   0  0  0  0  0  0  0  0  0  0  0  0
    6.3880    2.2471   -4.2465 F   0  0  0  0  0  0  0  0  0  0  0  0
    6.7446    2.7209   -1.3519 N   0  0  0  0  0  0  0  0  0  0  0  0
    5.8936    2.8540   -0.2575 C   0  0  0  0  0  0  0  0  0  0  0  0
    5.2720    1.9532    0.2552 O   0  0  0  0  0  0  0  0  0  0  0  0
    1.3221    2.5344    1.2981 H   0  0  0  0  0  0  0  0  0  0  0  0
    1.8668    2.9890    2.9591 H   0  0  0  0  0  0  0  0  0  0  0  0
    2.6682    1.6395    2.0930 H   0  0  0  0  0  0  0  0  0  0  0  0
    5.2114    5.7641    1.6314 H   0  0  0  0  0  0  0  0  0  0  0  0
   10.1028    7.3282   -2.9367 H   0  0  0  0  0  0  0  0  0  0  0  0
   11.8564    8.9824   -3.5645 H   0  0  0  0  0  0  0  0  0  0  0  0
   13.7728    8.2850   -5.0029 H   0  0  0  0  0  0  0  0  0  0  0  0
   13.9264    5.9295   -5.8079 H   0  0  0  0  0  0  0  0  0  0  0  0
   12.1874    4.2867   -5.1868 H   0  0  0  0  0  0  0  0  0  0  0  0
   10.7796    2.7013   -3.6044 H   0  0  0  0  0  0  0  0  0  0  0  0
   10.0587    3.1511   -5.1678 H   0  0  0  0  0  0  0  0  0  0  0  0
    7.9244    1.4908   -2.2977 H   0  0  0  0  0  0  0  0  0  0  0  0
  1  2  1  0
  1 28  1  0
  1 29  1  0
  1 30  1  0
  2  3  1  0
  3  4  2  0
  3  5  1  0
  5  6  2  0
  5 31  1  0
  6  7  1  0
  6 26  1  0
  7  8  2  0
  8  9  1  0
  8 25  1  0
  9 10  1  0
  9 19  1  0
 10 11  2  0
 11 12  1  0
 11 18  1  0
 12 13  2  0
 12 17  1  0
 13 14  1  0
 13 32  1  0
 14 15  2  0
 14 33  1  0
 15 16  1  0
 15 34  1  0
 16 17  2  0
 16 35  1  0
 17 36  1  0
 18 19  1  0
 18 37  1  0
 18 38  1  0
 19 20  1  1
 19 21  1  0
 20 39  1  0
 21 22  1  6
 21 23  1  0
 21 24  1  0
 25 26  2  0
 26 27  1  0
M  CHG  2   7   1  27  -1
M  END

