
     RDKit          3D

 39 40  0  0  0  0  0  0  0  0999 V2000
   10.1833   -5.0626    0.3504 C   0  0  0  0  0  0  0  0  0  0  0  0
    9.8696   -3.8969    0.4295 C   0  0  0  0  0  0  0  0  0  0  0  0
    9.5258   -2.4793    0.5138 C   0  0  0  0  0  0  0  0  0  0  0  0
    8.2031   -2.3395    1.0043 O   0  0  0  0  0  0  0  0  0  0  0  0
    7.6699   -1.0895    1.1333 C   0  0  0  0  0  0  0  0  0  0  0  0
    8.3760    0.0953    0.8887 C   0  0  0  0  0  0  0  0  0  0  0  0
    7.7419    1.3311    1.0663 C   0  0  0  0  0  0  0  0  0  0  0  0
    6.4137    1.3888    1.4827 C   0  0  0  0  0  0  0  0  0  0  0  0
    5.7134    0.1996    1.7200 C   0  0  0  0  0  0  0  0  0  0  0  0
    6.3190   -1.0466    1.5471 C   0  0  0  0  0  0  0  0  0  0  0  0
    5.5856   -2.3512    1.8089 C   0  0  1  0  0  0  0  0  0  0  0  0
    5.8896   -2.9466    3.1808 C   0  0  0  0  0  0  0  0  0  0  0  0
    4.1573   -2.1389    1.7487 O   0  0  0  0  0  0  0  0  0  0  0  0
    3.5167   -2.4118    0.5904 C   0  0  0  0  0  0  0  0  0  0  0  0
    4.0477   -2.8398   -0.4065 O   0  0  0  0  0  0  0  0  0  0  0  0
    2.0744   -2.1248    0.6942 C   0  0  0  0  0  0  0  0  0  0  0  0
    1.1425   -2.2843   -0.3088 C   0  0  0  0  0  0  0  0  0  0  0  0
   -0.1398   -1.9547    0.0068 N   0  0  0  0  0  0  0  0  0  0  0  0
   -0.2379   -1.5349    1.2421 C   0  0  0  0  0  0  0  0  0  0  0  0
   -1.5257   -1.0952    1.8821 C   0  0  0  0  0  0  0  0  0  0  0  0
   -2.6377   -2.1446    1.7622 C   0  0  0  0  0  0  0  0  0  0  0  0
    1.2763   -1.5246    2.1193 S   0  0  0  0  0  0  0  0  0  0  0  0
   10.4548   -6.0995    0.2796 H   0  0  0  0  0  0  0  0  0  0  0  0
    9.6174   -2.0133   -0.4863 H   0  0  0  0  0  0  0  0  0  0  0  0
   10.2433   -1.9644    1.1815 H   0  0  0  0  0  0  0  0  0  0  0  0
    9.4153    0.0715    0.5610 H   0  0  0  0  0  0  0  0  0  0  0  0
    8.3006    2.2504    0.8730 H   0  0  0  0  0  0  0  0  0  0  0  0
    5.9179    2.3523    1.6201 H   0  0  0  0  0  0  0  0  0  0  0  0
    4.6685    0.2331    2.0338 H   0  0  0  0  0  0  0  0  0  0  0  0
    5.8561   -3.0659    1.0200 H   0  0  0  0  0  0  0  0  0  0  0  0
    5.5880   -2.2542    3.9817 H   0  0  0  0  0  0  0  0  0  0  0  0
    6.9679   -3.1408    3.2675 H   0  0  0  0  0  0  0  0  0  0  0  0
    5.3501   -3.8970    3.3129 H   0  0  0  0  0  0  0  0  0  0  0  0
    1.3958   -2.6506   -1.3053 H   0  0  0  0  0  0  0  0  0  0  0  0
   -1.8456   -0.1624    1.3842 H   0  0  0  0  0  0  0  0  0  0  0  0
   -1.3434   -0.8382    2.9376 H   0  0  0  0  0  0  0  0  0  0  0  0
   -2.8038   -2.4062    0.7070 H   0  0  0  0  0  0  0  0  0  0  0  0
   -3.5806   -1.7598    2.1805 H   0  0  0  0  0  0  0  0  0  0  0  0
   -2.3735   -3.0672    2.3026 H   0  0  0  0  0  0  0  0  0  0  0  0
  1  2  3  0
  1 23  1  0
  2  3  1  0
  3  4  1  0
  3 24  1  0
  3 25  1  0
  4  5  1  0
  5  6  2  0
  5 10  1  0
  6  7  1  0
  6 26  1  0
  7  8  2  0
  7 27  1  0
  8  9  1  0
  8 28  1  0
  9 10  2  0
  9 29  1  0
 10 11  1  0
 11 12  1  0
 11 13  1  0
 11 30  1  6
 12 31  1  0
 12 32  1  0
 12 33  1  0
 13 14  1  0
 14 15  2  0
 14 16  1  0
 16 17  2  0
 16 22  1  0
 17 18  1  0
 17 34  1  0
 18 19  2  0
 19 20  1  0
 19 22  1  0
 20 21  1  0
 20 35  1  0
 20 36  1  0
 21 37  1  0
 21 38  1  0
 21 39  1  0
M  END

