
     RDKit          3D

 36 38  0  0  0  0  0  0  0  0999 V2000
    2.7558    1.8611   -0.3755 C   0  0  0  0  0  0  0  0  0  0  0  0
    2.4314    0.0912   -0.1112 S   0  0  0  0  0  0  0  0  0  0  0  0
    3.2829   -0.5974   -1.4955 C   0  0  0  0  0  0  0  0  0  0  0  0
    3.9128    0.1818   -2.3569 N   0  0  0  0  0  0  0  0  0  0  0  0
    4.4147   -0.6620   -3.2996 N   0  0  0  0  0  0  0  0  0  0  0  0
    5.0260   -0.2899   -4.0143 H   0  0  0  0  0  0  0  0  0  0  0  0
    4.1418   -1.9594   -3.0457 C   0  0  0  0  0  0  0  0  0  0  0  0
    4.4822   -3.0445   -3.8183 N   0  0  0  0  0  0  0  0  0  0  0  0
    5.1202   -3.1046   -5.0486 C   0  0  0  0  0  0  0  0  0  0  0  0
    6.3538   -2.4775   -5.3528 C   0  0  0  0  0  0  0  0  0  0  0  0
    7.2464   -1.6277   -4.1101 Cl  0  0  0  0  0  0  0  0  0  0  0  0
    6.9455   -2.5743   -6.6125 C   0  0  0  0  0  0  0  0  0  0  0  0
    6.3431   -3.3408   -7.6097 C   0  0  0  0  0  0  0  0  0  0  0  0
    6.9509   -3.4082   -8.9889 C   0  0  1  0  0  0  0  0  0  0  0  0
    8.2789   -3.2079   -8.9573 F   0  0  0  0  0  0  0  0  0  0  0  0
    6.7292   -4.5997   -9.5689 F   0  0  0  0  0  0  0  0  0  0  0  0
    6.4302   -2.4717   -9.8040 F   0  0  0  0  0  0  0  0  0  0  0  0
    5.1552   -4.0254   -7.3361 C   0  0  0  0  0  0  0  0  0  0  0  0
    4.5616   -3.9023   -6.0849 C   0  0  0  0  0  0  0  0  0  0  0  0
    3.0741   -4.7639   -5.7796 Cl  0  0  0  0  0  0  0  0  0  0  0  0
    3.3764   -1.9889   -1.8578 C   0  0  0  0  0  0  0  0  0  0  0  0
    2.8193   -3.1938   -1.2619 C   0  0  0  0  0  0  0  0  0  0  0  0
    2.1654   -3.2292   -0.0024 C   0  0  0  0  0  0  0  0  0  0  0  0
    1.6549   -4.3433    0.5045 N   0  0  0  0  0  0  0  0  0  0  0  0
    1.7744   -5.4651   -0.2145 C   0  0  0  0  0  0  0  0  0  0  0  0
    2.4237   -5.4598   -1.4491 C   0  0  0  0  0  0  0  0  0  0  0  0
    2.9385   -4.3437   -1.9634 N   0  0  0  0  0  0  0  0  0  0  0  0
    2.2525    2.3816    0.4510 H   0  0  0  0  0  0  0  0  0  0  0  0
    2.3440    2.1900   -1.3386 H   0  0  0  0  0  0  0  0  0  0  0  0
    3.8343    2.0658   -0.3524 H   0  0  0  0  0  0  0  0  0  0  0  0
    3.9299   -3.8636   -3.5129 H   0  0  0  0  0  0  0  0  0  0  0  0
    7.8969   -2.0743   -6.7928 H   0  0  0  0  0  0  0  0  0  0  0  0
    4.6813   -4.6484   -8.0945 H   0  0  0  0  0  0  0  0  0  0  0  0
    2.0716   -2.3226    0.6016 H   0  0  0  0  0  0  0  0  0  0  0  0
    1.3518   -6.3864    0.2000 H   0  0  0  0  0  0  0  0  0  0  0  0
    2.5311   -6.3782   -2.0372 H   0  0  0  0  0  0  0  0  0  0  0  0
  1  2  1  0
  1 28  1  0
  1 29  1  0
  1 30  1  0
  2  3  1  0
  3  4  2  0
  3 21  1  0
  4  5  1  0
  5  6  1  0
  5  7  1  0
  7  8  1  0
  7 21  2  0
  8  9  1  0
  8 31  1  0
  9 10  2  0
  9 19  1  0
 10 11  1  0
 10 12  1  0
 12 13  2  0
 12 32  1  0
 13 14  1  0
 13 18  1  0
 14 15  1  1
 14 16  1  0
 14 17  1  0
 18 19  2  0
 18 33  1  0
 19 20  1  0
 21 22  1  0
 22 23  2  0
 22 27  1  0
 23 24  1  0
 23 34  1  0
 24 25  2  0
 25 26  1  0
 25 35  1  0
 26 27  2  0
 26 36  1  0
M  END

