
     RDKit          3D

 26 27  0  0  0  0  0  0  0  0999 V2000
    2.7074   -1.7638    1.0687 O   0  0  0  0  0  0  0  0  0  0  0  0
    2.2262   -0.6404    1.0834 C   0  0  0  0  0  0  0  0  0  0  0  0
    2.9483    0.5036    1.1440 N   0  0  0  0  0  0  0  0  0  0  0  0
    4.4398    0.4953    1.1532 C   0  0  2  0  0  0  0  0  0  0  0  0
    4.9079   -0.3959    0.1815 O   0  0  0  0  0  0  0  0  0  0  0  0
    4.9440    0.1079    2.5574 C   0  0  0  0  0  0  0  0  0  0  0  0
    4.6682    1.2064    3.5836 C   0  0  0  0  0  0  0  0  0  0  0  0
    5.4114    2.4924    3.2091 C   0  0  0  0  0  0  0  0  0  0  0  0
    5.2896    2.8425    1.7403 C   0  0  0  0  0  0  0  0  0  0  0  0
    5.6302    4.1284    1.2804 C   0  0  0  0  0  0  0  0  0  0  0  0
    5.6115    4.5055    0.0049 N   0  0  0  0  0  0  0  0  0  0  0  0
    5.2518    3.5943   -0.9060 C   0  0  0  0  0  0  0  0  0  0  0  0
    4.8841    2.2913   -0.5741 C   0  0  0  0  0  0  0  0  0  0  0  0
    4.8936    1.9044    0.7724 C   0  0  0  0  0  0  0  0  0  0  0  0
    1.1250   -0.4640    1.0450 H   0  0  0  0  0  0  0  0  0  0  0  0
    2.4633    1.3893    1.0520 H   0  0  0  0  0  0  0  0  0  0  0  0
    4.4619   -1.2457    0.3647 H   0  0  0  0  0  0  0  0  0  0  0  0
    6.0282   -0.0728    2.4688 H   0  0  0  0  0  0  0  0  0  0  0  0
    4.4770   -0.8462    2.8444 H   0  0  0  0  0  0  0  0  0  0  0  0
    4.9692    0.8763    4.5903 H   0  0  0  0  0  0  0  0  0  0  0  0
    3.5817    1.3967    3.6313 H   0  0  0  0  0  0  0  0  0  0  0  0
    6.4859    2.3674    3.4408 H   0  0  0  0  0  0  0  0  0  0  0  0
    5.0712    3.3410    3.8254 H   0  0  0  0  0  0  0  0  0  0  0  0
    5.9364    4.8905    2.0095 H   0  0  0  0  0  0  0  0  0  0  0  0
    5.2559    3.9183   -1.9534 H   0  0  0  0  0  0  0  0  0  0  0  0
    4.6062    1.5687   -1.3429 H   0  0  0  0  0  0  0  0  0  0  0  0
  1  2  2  0
  2  3  1  0
  2 15  1  0
  3  4  1  0
  3 16  1  0
  4  5  1  6
  4  6  1  0
  4 14  1  0
  5 17  1  0
  6  7  1  0
  6 18  1  0
  6 19  1  0
  7  8  1  0
  7 20  1  0
  7 21  1  0
  8  9  1  0
  8 22  1  0
  8 23  1  0
  9 10  1  0
  9 14  2  0
 10 11  2  0
 10 24  1  0
 11 12  1  0
 12 13  2  0
 12 25  1  0
 13 14  1  0
 13 26  1  0
M  END

