
     RDKit          3D

253272  0  0  0  0  0  0  0  0999 V2000
    0.0149   -4.5392    1.5414 C   0  0  0  0  0  0  0  0  0  0  0  0
   -0.9444   -5.4870    0.7982 C   0  0  1  0  0  0  0  0  0  0  0  0
   -1.3948   -6.5855    1.7889 C   0  0  0  0  0  0  0  0  0  0  0  0
   -2.1760   -4.6664    0.3497 C   0  0  0  0  0  0  0  0  0  0  0  0
   -0.2841   -6.1424   -0.4337 C   0  0  0  0  0  0  0  0  0  0  0  0
    1.0512   -5.8754   -0.8125 C   0  0  0  0  0  0  0  0  0  0  0  0
    1.6555   -6.4675   -1.9245 C   0  0  0  0  0  0  0  0  0  0  0  0
    0.9030   -7.3637   -2.6872 C   0  0  0  0  0  0  0  0  0  0  0  0
   -0.4458   -7.6472   -2.3448 C   0  0  0  0  0  0  0  0  0  0  0  0
   -1.0213   -7.0372   -1.2245 C   0  0  0  0  0  0  0  0  0  0  0  0
   -0.9423   -8.5765   -3.3432 C   0  0  0  0  0  0  0  0  0  0  0  0
   -2.1749   -9.2210   -3.5290 C   0  0  0  0  0  0  0  0  0  0  0  0
   -2.3633  -10.1036   -4.5987 C   0  0  0  0  0  0  0  0  0  0  0  0
   -3.6968  -10.8364   -4.8516 C   0  0  1  0  0  0  0  0  0  0  0  0
   -4.2439  -10.4492   -6.2452 C   0  0  0  0  0  0  0  0  0  0  0  0
   -3.4668  -12.3647   -4.7979 C   0  0  0  0  0  0  0  0  0  0  0  0
   -4.7646  -10.4770   -3.8026 C   0  0  0  0  0  0  0  0  0  0  0  0
   -1.2697  -10.3238   -5.4733 C   0  0  0  0  0  0  0  0  0  0  0  0
   -0.0340   -9.6994   -5.3169 C   0  0  0  0  0  0  0  0  0  0  0  0
    0.1244   -8.8123   -4.2456 C   0  0  0  0  0  0  0  0  0  0  0  0
    1.2430   -8.0745   -3.8435 N   0  0  0  0  0  0  0  0  0  0  0  0
    2.5025   -8.0498   -4.4942 C   0  0  0  0  0  0  0  0  0  0  0  0
    2.6016   -7.6957   -5.8491 C   0  0  0  0  0  0  0  0  0  0  0  0
    3.8373   -7.6866   -6.4929 C   0  0  0  0  0  0  0  0  0  0  0  0
    5.0166   -7.9961   -5.7905 C   0  0  0  0  0  0  0  0  0  0  0  0
    6.2780   -7.9698   -6.4397 N   0  0  0  0  0  0  0  0  0  0  0  0
    6.5952   -6.9223   -7.3404 C   0  0  0  0  0  0  0  0  0  0  0  0
    6.2098   -5.5958   -7.0723 C   0  0  0  0  0  0  0  0  0  0  0  0
    6.5195   -4.5741   -7.9649 C   0  0  0  0  0  0  0  0  0  0  0  0
    7.2372   -4.8171   -9.1544 C   0  0  0  0  0  0  0  0  0  0  0  0
    7.5900   -3.7010  -10.0606 C   0  0  0  0  0  0  0  0  0  0  0  0
    7.8251   -2.4196   -9.5880 C   0  0  0  0  0  0  0  0  0  0  0  0
    8.1518   -1.3160  -10.4218 C   0  0  0  0  0  0  0  0  0  0  0  0
    8.2729   -1.4001  -11.7995 C   0  0  0  0  0  0  0  0  0  0  0  0
    8.6007   -0.2200  -12.6307 C   0  0  0  0  0  0  0  0  0  0  0  0
    9.3658   -0.3162  -13.8113 C   0  0  0  0  0  0  0  0  0  0  0  0
    9.6912    0.8120  -14.5592 C   0  0  0  0  0  0  0  0  0  0  0  0
    9.2662    2.0921  -14.1594 C   0  0  0  0  0  0  0  0  0  0  0  0
    9.5965    3.2417  -14.9209 N   0  0  0  0  0  0  0  0  0  0  0  0
    8.6278    4.2582  -15.1280 C   0  0  0  0  0  0  0  0  0  0  0  0
    8.9764    5.6170  -15.0238 C   0  0  0  0  0  0  0  0  0  0  0  0
    8.0242    6.6142  -15.2272 C   0  0  0  0  0  0  0  0  0  0  0  0
    6.6974    6.2828  -15.5431 C   0  0  0  0  0  0  0  0  0  0  0  0
    5.7293    7.2978  -15.7516 N   0  0  0  0  0  0  0  0  0  0  0  0
    5.8221    8.3443  -16.6753 C   0  0  0  0  0  0  0  0  0  0  0  0
    6.8220    8.6378  -17.6102 C   0  0  0  0  0  0  0  0  0  0  0  0
    6.6441    9.7475  -18.4332 C   0  0  0  0  0  0  0  0  0  0  0  0
    5.5007   10.5834  -18.3670 C   0  0  0  0  0  0  0  0  0  0  0  0
    5.3909   11.7947  -19.3157 C   0  0  1  0  0  0  0  0  0  0  0  0
    5.4257   11.3088  -20.7835 C   0  0  0  0  0  0  0  0  0  0  0  0
    4.0847   12.5812  -19.1041 C   0  0  0  0  0  0  0  0  0  0  0  0
    6.5759   12.7565  -19.0660 C   0  0  0  0  0  0  0  0  0  0  0  0
    4.5105   10.2612  -17.4325 C   0  0  0  0  0  0  0  0  0  0  0  0
    4.6586    9.1490  -16.5890 C   0  0  0  0  0  0  0  0  0  0  0  0
    3.8209    8.5611  -15.5610 C   0  0  0  0  0  0  0  0  0  0  0  0
    2.5723    8.9080  -15.0213 C   0  0  0  0  0  0  0  0  0  0  0  0
    2.0025    8.1448  -13.9964 C   0  0  0  0  0  0  0  0  0  0  0  0
    0.6324    8.4775  -13.3705 C   0  0  1  0  0  0  0  0  0  0  0  0
   -0.3325    7.2863  -13.5747 C   0  0  0  0  0  0  0  0  0  0  0  0
    0.8045    8.7439  -11.8569 C   0  0  0  0  0  0  0  0  0  0  0  0
   -0.0081    9.7251  -14.0051 C   0  0  0  0  0  0  0  0  0  0  0  0
    2.7308    7.0238  -13.5239 C   0  0  0  0  0  0  0  0  0  0  0  0
    3.9709    6.6522  -14.0384 C   0  0  0  0  0  0  0  0  0  0  0  0
    4.5133    7.4253  -15.0720 C   0  0  0  0  0  0  0  0  0  0  0  0
    6.3465    4.9277  -15.6489 C   0  0  0  0  0  0  0  0  0  0  0  0
    7.2968    3.9295  -15.4432 C   0  0  0  0  0  0  0  0  0  0  0  0
   10.8933    3.3778  -15.4797 C   0  0  0  0  0  0  0  0  0  0  0  0
   11.0665    3.8703  -16.7862 C   0  0  0  0  0  0  0  0  0  0  0  0
   12.3409    4.0051  -17.3338 C   0  0  0  0  0  0  0  0  0  0  0  0
   13.4794    3.6543  -16.5918 C   0  0  0  0  0  0  0  0  0  0  0  0
   14.7762    3.7935  -17.1488 N   0  0  0  0  0  0  0  0  0  0  0  0
   15.3270    4.9715  -17.6638 C   0  0  0  0  0  0  0  0  0  0  0  0
   14.7902    6.2624  -17.7373 C   0  0  0  0  0  0  0  0  0  0  0  0
   15.5793    7.2696  -18.2883 C   0  0  0  0  0  0  0  0  0  0  0  0
   16.8936    7.0450  -18.7705 C   0  0  0  0  0  0  0  0  0  0  0  0
   17.6931    8.2207  -19.3688 C   0  0  1  0  0  0  0  0  0  0  0  0
   17.8626    9.3281  -18.3027 C   0  0  0  0  0  0  0  0  0  0  0  0
   19.0949    7.7906  -19.8375 C   0  0  0  0  0  0  0  0  0  0  0  0
   16.9349    8.7950  -20.5881 C   0  0  0  0  0  0  0  0  0  0  0  0
   17.4109    5.7485  -18.6745 C   0  0  0  0  0  0  0  0  0  0  0  0
   16.6422    4.7113  -18.1234 C   0  0  0  0  0  0  0  0  0  0  0  0
   16.8993    3.3053  -17.8758 C   0  0  0  0  0  0  0  0  0  0  0  0
   17.9999    2.4694  -18.1217 C   0  0  0  0  0  0  0  0  0  0  0  0
   17.9531    1.1123  -17.7843 C   0  0  0  0  0  0  0  0  0  0  0  0
   19.1334    0.1499  -18.0291 C   0  0  1  0  0  0  0  0  0  0  0  0
   19.5939   -0.4573  -16.6834 C   0  0  0  0  0  0  0  0  0  0  0  0
   18.6874   -0.9865  -18.9783 C   0  0  0  0  0  0  0  0  0  0  0  0
   20.3394    0.8610  -18.6692 C   0  0  0  0  0  0  0  0  0  0  0  0
   16.7608    0.6178  -17.1976 C   0  0  0  0  0  0  0  0  0  0  0  0
   15.6518    1.4204  -16.9395 C   0  0  0  0  0  0  0  0  0  0  0  0
   15.7292    2.7774  -17.2752 C   0  0  0  0  0  0  0  0  0  0  0  0
   13.3104    3.1632  -15.2878 C   0  0  0  0  0  0  0  0  0  0  0  0
   12.0368    3.0254  -14.7396 C   0  0  0  0  0  0  0  0  0  0  0  0
    8.4965    2.2000  -12.9867 C   0  0  0  0  0  0  0  0  0  0  0  0
    8.1693    1.0668  -12.2479 C   0  0  0  0  0  0  0  0  0  0  0  0
    8.0468   -2.7144  -12.3499 C   0  0  0  0  0  0  0  0  0  0  0  0
    8.0890   -3.0388  -13.6453 N   0  0  0  0  0  0  0  0  0  0  0  0
    7.7361   -4.6331  -13.7649 S   0  0  0  0  0  0  0  0  0  0  0  0
    7.5116   -4.9788  -12.1803 N   0  0  0  0  0  0  0  0  0  0  0  0
    7.7087   -3.8513  -11.4911 C   0  0  0  0  0  0  0  0  0  0  0  0
    7.6124   -6.1513   -9.4151 C   0  0  0  0  0  0  0  0  0  0  0  0
    7.2984   -7.1800   -8.5314 C   0  0  0  0  0  0  0  0  0  0  0  0
    7.2226   -8.9983   -6.1844 C   0  0  0  0  0  0  0  0  0  0  0  0
    6.8205  -10.3446   -6.1191 C   0  0  0  0  0  0  0  0  0  0  0  0
    7.7482  -11.3539   -5.8685 C   0  0  0  0  0  0  0  0  0  0  0  0
    9.1038  -11.0471   -5.6727 C   0  0  0  0  0  0  0  0  0  0  0  0
   10.0473  -12.0743   -5.4173 N   0  0  0  0  0  0  0  0  0  0  0  0
   11.2100  -12.3233   -6.1544 C   0  0  0  0  0  0  0  0  0  0  0  0
   11.7105  -11.6839   -7.2950 C   0  0  0  0  0  0  0  0  0  0  0  0
   12.8988  -12.1599   -7.8443 C   0  0  0  0  0  0  0  0  0  0  0  0
   13.6149  -13.2578   -7.3039 C   0  0  0  0  0  0  0  0  0  0  0  0
   14.9266  -13.7125   -7.9763 C   0  0  1  0  0  0  0  0  0  0  0  0
   15.9472  -12.5507   -7.9573 C   0  0  0  0  0  0  0  0  0  0  0  0
   15.5605  -14.9168   -7.2571 C   0  0  0  0  0  0  0  0  0  0  0  0
   14.6441  -14.1225   -9.4404 C   0  0  0  0  0  0  0  0  0  0  0  0
   13.0868  -13.8871   -6.1713 C   0  0  0  0  0  0  0  0  0  0  0  0
   11.8908  -13.4327   -5.5938 C   0  0  0  0  0  0  0  0  0  0  0  0
   11.1018  -13.8761   -4.4602 C   0  0  0  0  0  0  0  0  0  0  0  0
   11.2639  -14.9030   -3.5169 C   0  0  0  0  0  0  0  0  0  0  0  0
   10.3261  -15.0858   -2.4947 C   0  0  0  0  0  0  0  0  0  0  0  0
   10.4529  -16.1994   -1.4348 C   0  0  1  0  0  0  0  0  0  0  0  0
   10.5347  -15.5673   -0.0258 C   0  0  0  0  0  0  0  0  0  0  0  0
    9.2181  -17.1274   -1.5092 C   0  0  0  0  0  0  0  0  0  0  0  0
   11.7110  -17.0609   -1.6455 C   0  0  0  0  0  0  0  0  0  0  0  0
    9.2215  -14.1983   -2.4447 C   0  0  0  0  0  0  0  0  0  0  0  0
    9.0310  -13.1705   -3.3655 C   0  0  0  0  0  0  0  0  0  0  0  0
    9.9771  -13.0169   -4.3859 C   0  0  0  0  0  0  0  0  0  0  0  0
    9.5081   -9.7043   -5.7348 C   0  0  0  0  0  0  0  0  0  0  0  0
    8.5820   -8.6944   -5.9881 C   0  0  0  0  0  0  0  0  0  0  0  0
    4.9153   -8.3344   -4.4285 C   0  0  0  0  0  0  0  0  0  0  0  0
    3.6749   -8.3779   -3.7953 C   0  0  0  0  0  0  0  0  0  0  0  0
   -0.4971   -4.0974    2.4109 H   0  0  0  0  0  0  0  0  0  0  0  0
    0.3522   -3.7093    0.9007 H   0  0  0  0  0  0  0  0  0  0  0  0
    0.9060   -5.0666    1.9163 H   0  0  0  0  0  0  0  0  0  0  0  0
   -1.8734   -6.1360    2.6750 H   0  0  0  0  0  0  0  0  0  0  0  0
   -0.5354   -7.1834    2.1322 H   0  0  0  0  0  0  0  0  0  0  0  0
   -2.1206   -7.2764    1.3335 H   0  0  0  0  0  0  0  0  0  0  0  0
   -2.6632   -4.1923    1.2181 H   0  0  0  0  0  0  0  0  0  0  0  0
   -2.9280   -5.2951   -0.1511 H   0  0  0  0  0  0  0  0  0  0  0  0
   -1.8845   -3.8706   -0.3541 H   0  0  0  0  0  0  0  0  0  0  0  0
    1.6509   -5.1793   -0.2263 H   0  0  0  0  0  0  0  0  0  0  0  0
    2.6874   -6.2257   -2.1841 H   0  0  0  0  0  0  0  0  0  0  0  0
   -2.0602   -7.2659   -0.9749 H   0  0  0  0  0  0  0  0  0  0  0  0
   -2.9800   -9.0229   -2.8213 H   0  0  0  0  0  0  0  0  0  0  0  0
   -3.5441  -10.7184   -7.0510 H   0  0  0  0  0  0  0  0  0  0  0  0
   -4.4260   -9.3645   -6.3096 H   0  0  0  0  0  0  0  0  0  0  0  0
   -5.1966  -10.9675   -6.4449 H   0  0  0  0  0  0  0  0  0  0  0  0
   -2.7417  -12.6986   -5.5557 H   0  0  0  0  0  0  0  0  0  0  0  0
   -4.4108  -12.9049   -4.9801 H   0  0  0  0  0  0  0  0  0  0  0  0
   -3.0837  -12.6709   -3.8114 H   0  0  0  0  0  0  0  0  0  0  0  0
   -4.9986   -9.4009   -3.8066 H   0  0  0  0  0  0  0  0  0  0  0  0
   -4.4506  -10.7555   -2.7844 H   0  0  0  0  0  0  0  0  0  0  0  0
   -5.6988  -11.0188   -4.0196 H   0  0  0  0  0  0  0  0  0  0  0  0
   -1.3867  -11.0141   -6.3119 H   0  0  0  0  0  0  0  0  0  0  0  0
    0.7824   -9.9058   -6.0109 H   0  0  0  0  0  0  0  0  0  0  0  0
    1.6984   -7.4307   -6.4022 H   0  0  0  0  0  0  0  0  0  0  0  0
    3.8943   -7.4232   -7.5506 H   0  0  0  0  0  0  0  0  0  0  0  0
    5.6558   -5.3674   -6.1602 H   0  0  0  0  0  0  0  0  0  0  0  0
    6.1815   -3.5617   -7.7341 H   0  0  0  0  0  0  0  0  0  0  0  0
    7.7903   -2.2407   -8.5115 H   0  0  0  0  0  0  0  0  0  0  0  0
    8.3467   -0.3588   -9.9336 H   0  0  0  0  0  0  0  0  0  0  0  0
    9.7011   -1.2935  -14.1560 H   0  0  0  0  0  0  0  0  0  0  0  0
   10.2813    0.7019  -15.4709 H   0  0  0  0  0  0  0  0  0  0  0  0
   10.0008    5.8914  -14.7655 H   0  0  0  0  0  0  0  0  0  0  0  0
    8.3038    7.6639  -15.1176 H   0  0  0  0  0  0  0  0  0  0  0  0
    7.7156    8.0182  -17.7019 H   0  0  0  0  0  0  0  0  0  0  0  0
    7.4282    9.9715  -19.1600 H   0  0  0  0  0  0  0  0  0  0  0  0
    4.5865   10.6264  -20.9925 H   0  0  0  0  0  0  0  0  0  0  0  0
    6.3580   10.7726  -21.0176 H   0  0  0  0  0  0  0  0  0  0  0  0
    5.3510   12.1637  -21.4761 H   0  0  0  0  0  0  0  0  0  0  0  0
    3.1956   11.9605  -19.2961 H   0  0  0  0  0  0  0  0  0  0  0  0
    4.0466   13.4360  -19.7979 H   0  0  0  0  0  0  0  0  0  0  0  0
    4.0078   12.9825  -18.0814 H   0  0  0  0  0  0  0  0  0  0  0  0
    7.5463   12.2678  -19.2422 H   0  0  0  0  0  0  0  0  0  0  0  0
    6.5715   13.1257  -18.0280 H   0  0  0  0  0  0  0  0  0  0  0  0
    6.5154   13.6284  -19.7385 H   0  0  0  0  0  0  0  0  0  0  0  0
    3.6070   10.8652  -17.3468 H   0  0  0  0  0  0  0  0  0  0  0  0
    2.0588    9.7853  -15.4149 H   0  0  0  0  0  0  0  0  0  0  0  0
    0.0463    6.3653  -13.1058 H   0  0  0  0  0  0  0  0  0  0  0  0
   -0.4808    7.0788  -14.6464 H   0  0  0  0  0  0  0  0  0  0  0  0
   -1.3176    7.5053  -13.1301 H   0  0  0  0  0  0  0  0  0  0  0  0
    1.2202    7.8713  -11.3301 H   0  0  0  0  0  0  0  0  0  0  0  0
   -0.1673    8.9806  -11.3926 H   0  0  0  0  0  0  0  0  0  0  0  0
    1.4825    9.5943  -11.6811 H   0  0  0  0  0  0  0  0  0  0  0  0
   -0.1861    9.5920  -15.0837 H   0  0  0  0  0  0  0  0  0  0  0  0
    0.6165   10.6219  -13.8692 H   0  0  0  0  0  0  0  0  0  0  0  0
   -0.9823    9.9267  -13.5321 H   0  0  0  0  0  0  0  0  0  0  0  0
    2.3126    6.4157  -12.7185 H   0  0  0  0  0  0  0  0  0  0  0  0
    4.4988    5.7848  -13.6387 H   0  0  0  0  0  0  0  0  0  0  0  0
    5.3236    4.6575  -15.9182 H   0  0  0  0  0  0  0  0  0  0  0  0
    7.0109    2.8808  -15.5422 H   0  0  0  0  0  0  0  0  0  0  0  0
   10.1911    4.1343  -17.3823 H   0  0  0  0  0  0  0  0  0  0  0  0
   12.4576    4.3648  -18.3580 H   0  0  0  0  0  0  0  0  0  0  0  0
   13.7859    6.4831  -17.3721 H   0  0  0  0  0  0  0  0  0  0  0  0
   15.1543    8.2745  -18.3433 H   0  0  0  0  0  0  0  0  0  0  0  0
   18.4081    8.9487  -17.4240 H   0  0  0  0  0  0  0  0  0  0  0  0
   16.8931    9.7141  -17.9526 H   0  0  0  0  0  0  0  0  0  0  0  0
   18.4299   10.1791  -18.7153 H   0  0  0  0  0  0  0  0  0  0  0  0
   19.7031    7.3978  -19.0076 H   0  0  0  0  0  0  0  0  0  0  0  0
   19.6304    8.6565  -20.2580 H   0  0  0  0  0  0  0  0  0  0  0  0
   19.0472    7.0192  -20.6220 H   0  0  0  0  0  0  0  0  0  0  0  0
   15.9343    9.1629  -20.3142 H   0  0  0  0  0  0  0  0  0  0  0  0
   16.8067    8.0286  -21.3691 H   0  0  0  0  0  0  0  0  0  0  0  0
   17.4913    9.6398  -21.0273 H   0  0  0  0  0  0  0  0  0  0  0  0
   18.4195    5.5234  -19.0217 H   0  0  0  0  0  0  0  0  0  0  0  0
   18.8891    2.8988  -18.5838 H   0  0  0  0  0  0  0  0  0  0  0  0
   18.7876   -1.0202  -16.1888 H   0  0  0  0  0  0  0  0  0  0  0  0
   19.9258    0.3307  -15.9887 H   0  0  0  0  0  0  0  0  0  0  0  0
   20.4366   -1.1513  -16.8399 H   0  0  0  0  0  0  0  0  0  0  0  0
   17.8508   -1.5672  -18.5604 H   0  0  0  0  0  0  0  0  0  0  0  0
   19.5194   -1.6867  -19.1619 H   0  0  0  0  0  0  0  0  0  0  0  0
   18.3609   -0.5826  -19.9499 H   0  0  0  0  0  0  0  0  0  0  0  0
   20.7269    1.6691  -18.0291 H   0  0  0  0  0  0  0  0  0  0  0  0
   20.0886    1.2923  -19.6509 H   0  0  0  0  0  0  0  0  0  0  0  0
   21.1585    0.1412  -18.8245 H   0  0  0  0  0  0  0  0  0  0  0  0
   16.6945   -0.4400  -16.9327 H   0  0  0  0  0  0  0  0  0  0  0  0
   14.7519    0.9946  -16.4927 H   0  0  0  0  0  0  0  0  0  0  0  0
   14.1893    2.9092  -14.6919 H   0  0  0  0  0  0  0  0  0  0  0  0
   11.9241    2.6542  -13.7195 H   0  0  0  0  0  0  0  0  0  0  0  0
    8.1473    3.1805  -12.6582 H   0  0  0  0  0  0  0  0  0  0  0  0
    7.5504    1.1863  -11.3561 H   0  0  0  0  0  0  0  0  0  0  0  0
    8.1479   -6.3890  -10.3331 H   0  0  0  0  0  0  0  0  0  0  0  0
    7.5995   -8.2022   -8.7676 H   0  0  0  0  0  0  0  0  0  0  0  0
    5.7723  -10.6017   -6.2823 H   0  0  0  0  0  0  0  0  0  0  0  0
    7.4251  -12.3965   -5.8467 H   0  0  0  0  0  0  0  0  0  0  0  0
   11.1894  -10.8400   -7.7499 H   0  0  0  0  0  0  0  0  0  0  0  0
   13.2845  -11.6561   -8.7336 H   0  0  0  0  0  0  0  0  0  0  0  0
   16.1747  -12.2432   -6.9241 H   0  0  0  0  0  0  0  0  0  0  0  0
   15.5729  -11.6657   -8.4941 H   0  0  0  0  0  0  0  0  0  0  0  0
   16.8915  -12.8568   -8.4378 H   0  0  0  0  0  0  0  0  0  0  0  0
   15.8150  -14.6835   -6.2113 H   0  0  0  0  0  0  0  0  0  0  0  0
   16.4926  -15.2082   -7.7666 H   0  0  0  0  0  0  0  0  0  0  0  0
   14.8947  -15.7940   -7.2599 H   0  0  0  0  0  0  0  0  0  0  0  0
   14.2271  -13.2903  -10.0278 H   0  0  0  0  0  0  0  0  0  0  0  0
   13.9247  -14.9556   -9.4843 H   0  0  0  0  0  0  0  0  0  0  0  0
   15.5734  -14.4474   -9.9375 H   0  0  0  0  0  0  0  0  0  0  0  0
   13.5924  -14.7418   -5.7216 H   0  0  0  0  0  0  0  0  0  0  0  0
   12.1366  -15.5515   -3.5958 H   0  0  0  0  0  0  0  0  0  0  0  0
    9.6415  -14.9687    0.2093 H   0  0  0  0  0  0  0  0  0  0  0  0
   11.4118  -14.9060    0.0589 H   0  0  0  0  0  0  0  0  0  0  0  0
   10.6224  -16.3507    0.7453 H   0  0  0  0  0  0  0  0  0  0  0  0
    8.2809  -16.5806   -1.3242 H   0  0  0  0  0  0  0  0  0  0  0  0
    9.2901  -17.9289   -0.7552 H   0  0  0  0  0  0  0  0  0  0  0  0
    9.1391  -17.5993   -2.5016 H   0  0  0  0  0  0  0  0  0  0  0  0
   12.6341  -16.4645   -1.5748 H   0  0  0  0  0  0  0  0  0  0  0  0
   11.7038  -17.5661   -2.6240 H   0  0  0  0  0  0  0  0  0  0  0  0
   11.7629  -17.8423   -0.8709 H   0  0  0  0  0  0  0  0  0  0  0  0
    8.4790  -14.3135   -1.6517 H   0  0  0  0  0  0  0  0  0  0  0  0
    8.1687  -12.5068   -3.2834 H   0  0  0  0  0  0  0  0  0  0  0  0
   10.5554   -9.4504   -5.5597 H   0  0  0  0  0  0  0  0  0  0  0  0
    8.9107   -7.6541   -6.0210 H   0  0  0  0  0  0  0  0  0  0  0  0
    5.8185   -8.5771   -3.8657 H   0  0  0  0  0  0  0  0  0  0  0  0
    3.6106   -8.6632   -2.7435 H   0  0  0  0  0  0  0  0  0  0  0  0
  2  1  1  1
  1132  1  0
  1133  1  0
  1134  1  0
  2  3  1  0
  2  4  1  0
  2  5  1  0
  3135  1  0
  3136  1  0
  3137  1  0
  4138  1  0
  4139  1  0
  4140  1  0
  5  6  2  0
  5 10  1  0
  6  7  1  0
  6141  1  0
  7  8  2  0
  7142  1  0
  8  9  1  0
  8 21  1  0
  9 10  2  0
  9 11  1  0
 10143  1  0
 11 12  2  0
 11 20  1  0
 12 13  1  0
 12144  1  0
 13 14  1  0
 13 18  2  0
 14 15  1  6
 14 16  1  0
 14 17  1  0
 15145  1  0
 15146  1  0
 15147  1  0
 16148  1  0
 16149  1  0
 16150  1  0
 17151  1  0
 17152  1  0
 17153  1  0
 18 19  1  0
 18154  1  0
 19 20  2  0
 19155  1  0
 20 21  1  0
 21 22  1  0
 22 23  2  0
 22131  1  0
 23 24  1  0
 23156  1  0
 24 25  2  0
 24157  1  0
 25 26  1  0
 25130  1  0
 26 27  1  0
 26103  1  0
 27 28  2  0
 27102  1  0
 28 29  1  0
 28158  1  0
 29 30  2  0
 29159  1  0
 30 31  1  0
 30101  1  0
 31 32  2  0
 31100  1  0
 32 33  1  0
 32160  1  0
 33 34  2  0
 33161  1  0
 34 35  1  0
 34 96  1  0
 35 36  2  0
 35 95  1  0
 36 37  1  0
 36162  1  0
 37 38  2  0
 37163  1  0
 38 39  1  0
 38 94  1  0
 39 40  1  0
 39 67  1  0
 40 41  2  0
 40 66  1  0
 41 42  1  0
 41164  1  0
 42 43  2  0
 42165  1  0
 43 44  1  0
 43 65  1  0
 44 45  1  0
 44 64  1  0
 45 46  2  0
 45 54  1  0
 46 47  1  0
 46166  1  0
 47 48  2  0
 47167  1  0
 48 49  1  0
 48 53  1  0
 49 50  1  6
 49 51  1  0
 49 52  1  0
 50168  1  0
 50169  1  0
 50170  1  0
 51171  1  0
 51172  1  0
 51173  1  0
 52174  1  0
 52175  1  0
 52176  1  0
 53 54  2  0
 53177  1  0
 54 55  1  0
 55 56  1  0
 55 64  2  0
 56 57  2  0
 56178  1  0
 57 58  1  0
 57 62  1  0
 58 59  1  1
 58 60  1  0
 58 61  1  0
 59179  1  0
 59180  1  0
 59181  1  0
 60182  1  0
 60183  1  0
 60184  1  0
 61185  1  0
 61186  1  0
 61187  1  0
 62 63  2  0
 62188  1  0
 63 64  1  0
 63189  1  0
 65 66  2  0
 65190  1  0
 66191  1  0
 67 68  2  0
 67 93  1  0
 68 69  1  0
 68192  1  0
 69 70  2  0
 69193  1  0
 70 71  1  0
 70 92  1  0
 71 72  1  0
 71 91  1  0
 72 73  2  0
 72 81  1  0
 73 74  1  0
 73194  1  0
 74 75  2  0
 74195  1  0
 75 76  1  0
 75 80  1  0
 76 77  1  1
 76 78  1  0
 76 79  1  0
 77196  1  0
 77197  1  0
 77198  1  0
 78199  1  0
 78200  1  0
 78201  1  0
 79202  1  0
 79203  1  0
 79204  1  0
 80 81  2  0
 80205  1  0
 81 82  1  0
 82 83  1  0
 82 91  2  0
 83 84  2  0
 83206  1  0
 84 85  1  0
 84 89  1  0
 85 86  1  1
 85 87  1  0
 85 88  1  0
 86207  1  0
 86208  1  0
 86209  1  0
 87210  1  0
 87211  1  0
 87212  1  0
 88213  1  0
 88214  1  0
 88215  1  0
 89 90  2  0
 89216  1  0
 90 91  1  0
 90217  1  0
 92 93  2  0
 92218  1  0
 93219  1  0
 94 95  2  0
 94220  1  0
 95221  1  0
 96 97  2  0
 96100  1  0
 97 98  1  0
 98 99  1  0
 99100  2  0
101102  2  0
101222  1  0
102223  1  0
103104  2  0
103129  1  0
104105  1  0
104224  1  0
105106  2  0
105225  1  0
106107  1  0
106128  1  0
107108  1  0
107127  1  0
108109  2  0
108117  1  0
109110  1  0
109226  1  0
110111  2  0
110227  1  0
111112  1  0
111116  1  0
112113  1  6
112114  1  0
112115  1  0
113228  1  0
113229  1  0
113230  1  0
114231  1  0
114232  1  0
114233  1  0
115234  1  0
115235  1  0
115236  1  0
116117  2  0
116237  1  0
117118  1  0
118119  1  0
118127  2  0
119120  2  0
119238  1  0
120121  1  0
120125  1  0
121122  1  1
121123  1  0
121124  1  0
122239  1  0
122240  1  0
122241  1  0
123242  1  0
123243  1  0
123244  1  0
124245  1  0
124246  1  0
124247  1  0
125126  2  0
125248  1  0
126127  1  0
126249  1  0
128129  2  0
128250  1  0
129251  1  0
130131  2  0
130252  1  0
131253  1  0
M  END

