
     RDKit          3D

 40 41  0  0  0  0  0  0  0  0999 V2000
    0.9596   -0.4326   -0.2331 C   0  0  0  0  0  0  0  0  0  0  0  0
    2.4608   -0.2330    0.0570 C   0  0  1  0  0  0  0  0  0  0  0  0
    2.6412   -0.1370    1.5858 C   0  0  0  0  0  0  0  0  0  0  0  0
    3.2181   -1.4714   -0.4871 C   0  0  0  0  0  0  0  0  0  0  0  0
    4.7508   -1.4055   -0.5853 C   0  0  0  0  0  0  0  0  0  0  0  0
    5.2658   -0.4744   -1.6942 C   0  0  0  0  0  0  0  0  0  0  0  0
    5.4306    1.0198   -1.3171 C   0  0  2  0  0  0  0  0  0  0  0  0
    6.7166    1.3291   -0.7087 N   0  0  0  0  0  0  0  0  0  0  0  0
    7.9352    1.3242   -1.3706 C   0  0  0  0  0  0  0  0  0  0  0  0
    8.0544    1.3020   -2.7742 C   0  0  0  0  0  0  0  0  0  0  0  0
    9.3136    1.3527   -3.3860 C   0  0  0  0  0  0  0  0  0  0  0  0
   10.4938    1.4181   -2.6444 C   0  0  0  0  0  0  0  0  0  0  0  0
   11.7464    1.4649   -3.1790 O   0  0  0  0  0  0  0  0  0  0  0  0
   10.3659    1.4315   -1.2449 C   0  0  0  0  0  0  0  0  0  0  0  0
   11.4781    1.4901   -0.4986 F   0  0  0  0  0  0  0  0  0  0  0  0
    9.1314    1.3839   -0.6182 C   0  0  0  0  0  0  0  0  0  0  0  0
    4.3366    1.5745   -0.3834 C   0  0  0  0  0  0  0  0  0  0  0  0
    2.8998    1.0895   -0.6332 C   0  0  0  0  0  0  0  0  0  0  0  0
    0.5953   -1.3825    0.1913 H   0  0  0  0  0  0  0  0  0  0  0  0
    0.7619   -0.4532   -1.3176 H   0  0  0  0  0  0  0  0  0  0  0  0
    0.3568    0.3814    0.2022 H   0  0  0  0  0  0  0  0  0  0  0  0
    2.1814   -1.0074    2.0813 H   0  0  0  0  0  0  0  0  0  0  0  0
    2.1590    0.7694    1.9884 H   0  0  0  0  0  0  0  0  0  0  0  0
    3.6985   -0.1144    1.8912 H   0  0  0  0  0  0  0  0  0  0  0  0
    2.8319   -1.6993   -1.4976 H   0  0  0  0  0  0  0  0  0  0  0  0
    2.9357   -2.3361    0.1393 H   0  0  0  0  0  0  0  0  0  0  0  0
    5.1117   -2.4268   -0.7920 H   0  0  0  0  0  0  0  0  0  0  0  0
    5.2015   -1.1336    0.3863 H   0  0  0  0  0  0  0  0  0  0  0  0
    4.5833   -0.5530   -2.5589 H   0  0  0  0  0  0  0  0  0  0  0  0
    6.2434   -0.8276   -2.0589 H   0  0  0  0  0  0  0  0  0  0  0  0
    5.3757    1.5940   -2.2581 H   0  0  0  0  0  0  0  0  0  0  0  0
    6.7705    1.1761    0.2913 H   0  0  0  0  0  0  0  0  0  0  0  0
    7.1688    1.2487   -3.4068 H   0  0  0  0  0  0  0  0  0  0  0  0
    9.3758    1.3353   -4.4791 H   0  0  0  0  0  0  0  0  0  0  0  0
   11.6755    1.4544   -4.1418 H   0  0  0  0  0  0  0  0  0  0  0  0
    9.1100    1.4030    0.4741 H   0  0  0  0  0  0  0  0  0  0  0  0
    4.3736    2.6732   -0.4550 H   0  0  0  0  0  0  0  0  0  0  0  0
    4.6159    1.3481    0.6596 H   0  0  0  0  0  0  0  0  0  0  0  0
    2.7165    1.0064   -1.7196 H   0  0  0  0  0  0  0  0  0  0  0  0
    2.2113    1.8769   -0.2818 H   0  0  0  0  0  0  0  0  0  0  0  0
  2  1  1  1
  1 19  1  0
  1 20  1  0
  1 21  1  0
  2  3  1  0
  2  4  1  0
  2 18  1  0
  3 22  1  0
  3 23  1  0
  3 24  1  0
  4  5  1  0
  4 25  1  0
  4 26  1  0
  5  6  1  0
  5 27  1  0
  5 28  1  0
  6  7  1  0
  6 29  1  0
  6 30  1  0
  7  8  1  0
  7 17  1  0
  7 31  1  6
  8  9  1  0
  8 32  1  0
  9 10  2  0
  9 16  1  0
 10 11  1  0
 10 33  1  0
 11 12  2  0
 11 34  1  0
 12 13  1  0
 12 14  1  0
 13 35  1  0
 14 15  1  0
 14 16  2  0
 16 36  1  0
 17 18  1  0
 17 37  1  0
 17 38  1  0
 18 39  1  0
 18 40  1  0
M  END

