
     RDKit          3D

 54 56  0  0  0  0  0  0  0  0999 V2000
    4.4492   -2.4985    1.7113 C   0  0  0  0  0  0  0  0  0  0  0  0
    4.1416   -1.1985    1.0140 C   0  0  0  0  0  0  0  0  0  0  0  0
    4.8608   -0.0313    1.3128 C   0  0  0  0  0  0  0  0  0  0  0  0
    4.5837    1.1864    0.6860 C   0  0  0  0  0  0  0  0  0  0  0  0
    3.5707    1.2616   -0.2718 C   0  0  0  0  0  0  0  0  0  0  0  0
    2.8479    0.1124   -0.5965 C   0  0  0  0  0  0  0  0  0  0  0  0
    3.1236   -1.1028    0.0410 C   0  0  0  0  0  0  0  0  0  0  0  0
    2.3598   -2.2578   -0.3113 N   0  0  0  0  0  0  0  0  0  0  0  0
    2.9779   -3.3269   -0.8664 N   0  0  0  0  0  0  0  0  0  0  0  0
    2.0182   -4.2144   -1.0992 C   0  0  0  0  0  0  0  0  0  0  0  0
    2.3496   -5.5470   -1.7030 C   0  0  0  0  0  0  0  0  0  0  0  0
    0.7470   -3.7172   -0.6828 C   0  0  0  0  0  0  0  0  0  0  0  0
   -0.5837   -4.4176   -0.7439 C   0  0  0  0  0  0  0  0  0  0  0  0
   -1.5485   -3.8249   -1.6770 N   0  0  0  0  0  0  0  0  0  0  0  0
   -1.2688   -3.9326   -3.0931 C   0  0  0  0  0  0  0  0  0  0  0  0
   -2.7189   -3.2960   -1.1649 C   0  0  0  0  0  0  0  0  0  0  0  0
   -2.9030   -3.1374    0.0396 O   0  0  0  0  0  0  0  0  0  0  0  0
   -3.6795   -2.9375   -2.0879 N   0  0  0  0  0  0  0  0  0  0  0  0
   -4.9462   -2.3633   -1.6647 C   0  0  0  0  0  0  0  0  0  0  0  0
   -4.9215   -0.8307   -1.5908 C   0  0  1  0  0  0  0  0  0  0  0  0
   -4.6589   -0.1215   -2.9263 C   0  0  0  0  0  0  0  0  0  0  0  0
   -5.2189    1.2986   -2.8137 C   0  0  0  0  0  0  0  0  0  0  0  0
   -6.6380    1.1625   -2.2551 C   0  0  0  0  0  0  0  0  0  0  0  0
   -6.5640   -0.1857   -0.9945 S   0  0  0  0  0  0  0  0  0  0  0  0
    1.0076   -2.4468   -0.1752 C   0  0  0  0  0  0  0  0  0  0  0  0
    0.0842   -1.4462    0.4442 C   0  0  0  0  0  0  0  0  0  0  0  0
    5.1611   -2.3428    2.5346 H   0  0  0  0  0  0  0  0  0  0  0  0
    4.8716   -3.2310    1.0070 H   0  0  0  0  0  0  0  0  0  0  0  0
    3.5358   -2.9567    2.1237 H   0  0  0  0  0  0  0  0  0  0  0  0
    5.6533   -0.0822    2.0645 H   0  0  0  0  0  0  0  0  0  0  0  0
    5.1614    2.0765    0.9478 H   0  0  0  0  0  0  0  0  0  0  0  0
    3.3491    2.2065   -0.7738 H   0  0  0  0  0  0  0  0  0  0  0  0
    2.0694    0.1448   -1.3613 H   0  0  0  0  0  0  0  0  0  0  0  0
    3.4210   -5.5833   -1.9444 H   0  0  0  0  0  0  0  0  0  0  0  0
    1.7823   -5.7357   -2.6298 H   0  0  0  0  0  0  0  0  0  0  0  0
    2.1259   -6.3768   -1.0114 H   0  0  0  0  0  0  0  0  0  0  0  0
   -1.0744   -4.4128    0.2378 H   0  0  0  0  0  0  0  0  0  0  0  0
   -0.4226   -5.4742   -1.0230 H   0  0  0  0  0  0  0  0  0  0  0  0
   -0.1800   -3.9841   -3.2400 H   0  0  0  0  0  0  0  0  0  0  0  0
   -1.6145   -3.0403   -3.6389 H   0  0  0  0  0  0  0  0  0  0  0  0
   -1.7190   -4.8305   -3.5625 H   0  0  0  0  0  0  0  0  0  0  0  0
   -3.5679   -3.1834   -3.0606 H   0  0  0  0  0  0  0  0  0  0  0  0
   -5.1892   -2.7724   -0.6737 H   0  0  0  0  0  0  0  0  0  0  0  0
   -5.7348   -2.6812   -2.3661 H   0  0  0  0  0  0  0  0  0  0  0  0
   -4.1614   -0.5374   -0.8495 H   0  0  0  0  0  0  0  0  0  0  0  0
   -5.1843   -0.6599   -3.7366 H   0  0  0  0  0  0  0  0  0  0  0  0
   -3.5843   -0.1275   -3.1704 H   0  0  0  0  0  0  0  0  0  0  0  0
   -5.2174    1.8257   -3.7825 H   0  0  0  0  0  0  0  0  0  0  0  0
   -4.5999    1.8878   -2.1164 H   0  0  0  0  0  0  0  0  0  0  0  0
   -7.3553    0.8875   -3.0448 H   0  0  0  0  0  0  0  0  0  0  0  0
   -6.9971    2.0830   -1.7719 H   0  0  0  0  0  0  0  0  0  0  0  0
   -0.8859   -1.9134    0.6657 H   0  0  0  0  0  0  0  0  0  0  0  0
   -0.1077   -0.5902   -0.2244 H   0  0  0  0  0  0  0  0  0  0  0  0
    0.5036   -1.0363    1.3768 H   0  0  0  0  0  0  0  0  0  0  0  0
  1  2  1  0
  1 27  1  0
  1 28  1  0
  1 29  1  0
  2  3  2  0
  2  7  1  0
  3  4  1  0
  3 30  1  0
  4  5  2  0
  4 31  1  0
  5  6  1  0
  5 32  1  0
  6  7  2  0
  6 33  1  0
  7  8  1  0
  8  9  1  0
  8 25  1  0
  9 10  2  0
 10 11  1  0
 10 12  1  0
 11 34  1  0
 11 35  1  0
 11 36  1  0
 12 13  1  0
 12 25  2  0
 13 14  1  0
 13 37  1  0
 13 38  1  0
 14 15  1  0
 14 16  1  0
 15 39  1  0
 15 40  1  0
 15 41  1  0
 16 17  2  0
 16 18  1  0
 18 19  1  0
 18 42  1  0
 19 20  1  0
 19 43  1  0
 19 44  1  0
 20 21  1  0
 20 24  1  0
 20 45  1  1
 21 22  1  0
 21 46  1  0
 21 47  1  0
 22 23  1  0
 22 48  1  0
 22 49  1  0
 23 24  1  0
 23 50  1  0
 23 51  1  0
 25 26  1  0
 26 52  1  0
 26 53  1  0
 26 54  1  0
M  END

