
     RDKit          3D

 39 38  0  0  0  0  0  0  0  0999 V2000
    3.3553   -2.0085   -2.2509 C   0  0  0  0  0  0  0  0  0  0  0  0
    4.2252   -1.8026   -1.0092 C   0  0  0  0  0  0  0  0  0  0  0  0
    3.4255   -1.2785    0.1881 C   0  0  0  0  0  0  0  0  0  0  0  0
    4.2217   -1.1479    1.5056 C   0  0  1  0  0  0  0  0  0  0  0  0
    5.4156   -0.1814    1.4111 C   0  0  0  0  0  0  0  0  0  0  0  0
    5.0869    1.1788    1.0000 N   0  0  0  0  0  0  0  0  0  0  0  0
    4.9960    2.1984    1.8784 C   0  0  0  0  0  0  0  0  0  0  0  0
    5.1536    2.0446    3.0921 O   0  0  0  0  0  0  0  0  0  0  0  0
    4.6927    3.5987    1.3043 C   0  0  1  0  0  0  0  0  0  0  0  0
    4.5635    4.6307    2.4236 C   0  0  0  0  0  0  0  0  0  0  0  0
    5.7307    4.0317    0.2542 C   0  0  0  0  0  0  0  0  0  0  0  0
    3.0673    3.5307    0.3592 S   0  0  1  0  0  0  0  0  0  0  0  0
    1.8189    2.9750    1.5373 C   0  0  0  0  0  0  0  0  0  0  0  0
    2.7354    4.9003   -0.0540 O   0  0  0  0  0  0  0  0  0  0  0  0
    3.2142    2.4784   -0.6747 O   0  0  0  0  0  0  0  0  0  0  0  0
    3.2260   -0.9335    2.6693 C   0  0  0  0  0  0  0  0  0  0  0  0
    2.2576   -1.6436    2.7714 O   0  0  0  0  0  0  0  0  0  0  0  0
    3.4426    0.0337    3.5708 O   0  0  0  0  0  0  0  0  0  0  0  0
    3.9459   -2.3904   -3.0985 H   0  0  0  0  0  0  0  0  0  0  0  0
    2.8857   -1.0631   -2.5690 H   0  0  0  0  0  0  0  0  0  0  0  0
    2.5455   -2.7301   -2.0540 H   0  0  0  0  0  0  0  0  0  0  0  0
    5.0484   -1.1100   -1.2629 H   0  0  0  0  0  0  0  0  0  0  0  0
    4.7102   -2.7571   -0.7332 H   0  0  0  0  0  0  0  0  0  0  0  0
    2.5841   -1.9575    0.3912 H   0  0  0  0  0  0  0  0  0  0  0  0
    2.9762   -0.3016   -0.0673 H   0  0  0  0  0  0  0  0  0  0  0  0
    4.6590   -2.1405    1.7224 H   0  0  0  0  0  0  0  0  0  0  0  0
    6.1358   -0.5877    0.6845 H   0  0  0  0  0  0  0  0  0  0  0  0
    5.9452   -0.1149    2.3718 H   0  0  0  0  0  0  0  0  0  0  0  0
    4.7438    1.3459    0.0538 H   0  0  0  0  0  0  0  0  0  0  0  0
    5.5406    4.7570    2.9119 H   0  0  0  0  0  0  0  0  0  0  0  0
    3.8604    4.3075    3.2030 H   0  0  0  0  0  0  0  0  0  0  0  0
    4.2410    5.5958    2.0097 H   0  0  0  0  0  0  0  0  0  0  0  0
    6.7205    4.0926    0.7320 H   0  0  0  0  0  0  0  0  0  0  0  0
    5.4708    5.0238   -0.1421 H   0  0  0  0  0  0  0  0  0  0  0  0
    5.7924    3.3302   -0.5884 H   0  0  0  0  0  0  0  0  0  0  0  0
    1.6213    3.7815    2.2535 H   0  0  0  0  0  0  0  0  0  0  0  0
    2.1495    2.0581    2.0438 H   0  0  0  0  0  0  0  0  0  0  0  0
    0.9299    2.7773    0.9227 H   0  0  0  0  0  0  0  0  0  0  0  0
    4.2330    0.6091    3.4361 H   0  0  0  0  0  0  0  0  0  0  0  0
  1  2  1  0
  1 19  1  0
  1 20  1  0
  1 21  1  0
  2  3  1  0
  2 22  1  0
  2 23  1  0
  3  4  1  0
  3 24  1  0
  3 25  1  0
  4  5  1  0
  4 16  1  0
  4 26  1  1
  5  6  1  0
  5 27  1  0
  5 28  1  0
  6  7  1  0
  6 29  1  0
  7  8  2  0
  9  7  1  1
  9 10  1  0
  9 11  1  0
  9 12  1  0
 10 30  1  0
 10 31  1  0
 10 32  1  0
 11 33  1  0
 11 34  1  0
 11 35  1  0
 12 13  1  1
 12 14  2  0
 12 15  2  0
 13 36  1  0
 13 37  1  0
 13 38  1  0
 16 17  2  0
 16 18  1  0
 18 39  1  0
M  END

