
     RDKit          3D

 25 24  0  0  0  0  0  0  0  0999 V2000
    0.8711   -2.3778    0.2394 C   0  0  0  0  0  0  0  0  0  0  0  0
    2.3917   -2.4068    0.0797 C   0  0  0  0  0  0  0  0  0  0  0  0
    2.9370   -1.2384   -0.7467 C   0  0  0  0  0  0  0  0  0  0  0  0
    4.4661   -1.2133   -0.8778 C   0  0  0  0  0  0  0  0  0  0  0  0
    5.0363   -2.3817   -1.5416 N   0  0  0  0  0  0  0  0  0  0  0  0
    4.8284   -2.5425   -2.9672 C   0  0  0  0  0  0  0  0  0  0  0  0
    5.7377   -3.2984   -0.7836 C   0  0  0  0  0  0  0  0  0  0  0  0
    6.0122   -3.1343    0.3982 O   0  0  0  0  0  0  0  0  0  0  0  0
    6.1453   -4.4455   -1.4593 N   0  0  0  0  0  0  0  0  0  0  0  0
    6.7585   -5.4762   -0.7323 N   0  0  0  0  0  0  0  0  0  0  0  0
    0.5108   -3.2337    0.8322 H   0  0  0  0  0  0  0  0  0  0  0  0
    0.3621   -2.4137   -0.7389 H   0  0  0  0  0  0  0  0  0  0  0  0
    0.5375   -1.4579    0.7485 H   0  0  0  0  0  0  0  0  0  0  0  0
    2.6928   -3.3579   -0.3941 H   0  0  0  0  0  0  0  0  0  0  0  0
    2.8754   -2.4053    1.0720 H   0  0  0  0  0  0  0  0  0  0  0  0
    2.6273   -0.2826   -0.2859 H   0  0  0  0  0  0  0  0  0  0  0  0
    2.4727   -1.2472   -1.7511 H   0  0  0  0  0  0  0  0  0  0  0  0
    4.9296   -1.1631    0.1163 H   0  0  0  0  0  0  0  0  0  0  0  0
    4.7718   -0.3085   -1.4346 H   0  0  0  0  0  0  0  0  0  0  0  0
    4.6432   -1.5564   -3.4196 H   0  0  0  0  0  0  0  0  0  0  0  0
    3.9645   -3.1881   -3.2218 H   0  0  0  0  0  0  0  0  0  0  0  0
    5.7267   -2.9614   -3.4468 H   0  0  0  0  0  0  0  0  0  0  0  0
    5.5869   -4.7832   -2.2346 H   0  0  0  0  0  0  0  0  0  0  0  0
    6.3536   -5.4836    0.2090 H   0  0  0  0  0  0  0  0  0  0  0  0
    7.7381   -5.2207   -0.5915 H   0  0  0  0  0  0  0  0  0  0  0  0
  1  2  1  0
  1 11  1  0
  1 12  1  0
  1 13  1  0
  2  3  1  0
  2 14  1  0
  2 15  1  0
  3  4  1  0
  3 16  1  0
  3 17  1  0
  4  5  1  0
  4 18  1  0
  4 19  1  0
  5  6  1  0
  5  7  1  0
  6 20  1  0
  6 21  1  0
  6 22  1  0
  7  8  2  0
  7  9  1  0
  9 10  1  0
  9 23  1  0
 10 24  1  0
 10 25  1  0
M  END

