
     RDKit          3D

 25 26  0  0  0  0  0  0  0  0999 V2000
    0.9777    0.0204   -0.1885 F   0  0  0  0  0  0  0  0  0  0  0  0
    2.3157   -0.0077   -0.1215 C   0  0  0  0  0  0  0  0  0  0  0  0
    2.9964    1.1295    0.3067 C   0  0  0  0  0  0  0  0  0  0  0  0
    4.3910    1.0806    0.3729 C   0  0  0  0  0  0  0  0  0  0  0  0
    5.0787   -0.0836    0.0205 C   0  0  0  0  0  0  0  0  0  0  0  0
    4.3784   -1.2196   -0.4124 C   0  0  0  0  0  0  0  0  0  0  0  0
    5.1544   -2.4576   -0.8384 C   0  0  0  0  0  0  0  0  0  0  0  0
    4.3991   -3.6972   -0.8088 N   0  0  0  0  0  0  0  0  0  0  0  0
    3.8611   -4.3569   -1.8857 C   0  0  0  0  0  0  0  0  0  0  0  0
    3.2111   -5.4370   -1.5310 N   0  0  0  0  0  0  0  0  0  0  0  0
    3.3131   -5.4998   -0.1602 C   0  0  0  0  0  0  0  0  0  0  0  0
    2.7008   -6.6000    0.6189 C   0  0  0  0  0  0  0  0  0  0  0  0
    3.9239   -8.1647    0.8655 Br  0  0  0  0  0  0  0  0  0  0  0  0
    4.0473   -4.4244    0.3062 C   0  0  0  0  0  0  0  0  0  0  0  0
    2.9802   -1.1780   -0.4822 C   0  0  0  0  0  0  0  0  0  0  0  0
    2.4332    2.0228    0.5825 H   0  0  0  0  0  0  0  0  0  0  0  0
    4.9457    1.9594    0.7105 H   0  0  0  0  0  0  0  0  0  0  0  0
    6.1700   -0.1090    0.0834 H   0  0  0  0  0  0  0  0  0  0  0  0
    6.0470   -2.5701   -0.2027 H   0  0  0  0  0  0  0  0  0  0  0  0
    5.5247   -2.3275   -1.8690 H   0  0  0  0  0  0  0  0  0  0  0  0
    3.9900   -3.9873   -2.9042 H   0  0  0  0  0  0  0  0  0  0  0  0
    1.8303   -7.0116    0.0970 H   0  0  0  0  0  0  0  0  0  0  0  0
    2.4333   -6.3018    1.6384 H   0  0  0  0  0  0  0  0  0  0  0  0
    4.3452   -4.1264    1.3087 H   0  0  0  0  0  0  0  0  0  0  0  0
    2.3955   -2.0399   -0.8078 H   0  0  0  0  0  0  0  0  0  0  0  0
  1  2  1  0
  2  3  2  0
  2 15  1  0
  3  4  1  0
  3 16  1  0
  4  5  2  0
  4 17  1  0
  5  6  1  0
  5 18  1  0
  6  7  1  0
  6 15  2  0
  7  8  1  0
  7 19  1  0
  7 20  1  0
  8  9  1  0
  8 14  1  0
  9 10  2  0
  9 21  1  0
 10 11  1  0
 11 12  1  0
 11 14  2  0
 12 13  1  0
 12 22  1  0
 12 23  1  0
 14 24  1  0
 15 25  1  0
M  END

