
     RDKit          3D

 36 38  0  0  0  0  0  0  0  0999 V2000
    1.6361   -0.8268    0.5765 C   0  0  0  0  0  0  0  0  0  0  0  0
    2.9235   -0.1278    0.1246 C   0  0  0  0  0  0  0  0  0  0  0  0
    3.2495   -0.2737   -1.3742 C   0  0  2  0  0  0  0  0  0  0  0  0
    3.5974   -1.7451   -1.7963 C   0  0  2  0  0  0  0  0  0  0  0  0
    4.3242   -2.5595   -0.7085 C   0  0  0  0  0  0  0  0  0  0  0  0
    4.4312   -1.7759   -3.0988 C   0  0  0  0  0  0  0  0  0  0  0  0
    5.8136   -1.1117   -2.9640 C   0  0  0  0  0  0  0  0  0  0  0  0
    5.7571    0.2316   -2.1876 C   0  0  0  0  0  0  0  0  0  0  0  0
    4.3401    0.6830   -1.9425 C   0  0  2  0  0  0  0  0  0  0  0  0
    3.9459    2.1419   -1.8537 C   0  0  1  0  0  0  0  0  0  0  0  0
    4.8691    3.0738   -2.3357 O   0  0  0  0  0  0  0  0  0  0  0  0
    3.3219    1.2952   -2.9147 C   0  0  2  0  0  0  0  0  0  0  0  0
    2.1886    0.4504   -2.3136 C   0  0  1  0  0  0  0  0  0  0  0  0
    1.3084   -0.3461   -3.2704 C   0  0  0  0  0  0  0  0  0  0  0  0
    1.4554   -0.6635    1.6514 H   0  0  0  0  0  0  0  0  0  0  0  0
    1.6669   -1.9153    0.4115 H   0  0  0  0  0  0  0  0  0  0  0  0
    0.7570   -0.4396    0.0359 H   0  0  0  0  0  0  0  0  0  0  0  0
    3.7733   -0.4804    0.7319 H   0  0  0  0  0  0  0  0  0  0  0  0
    2.8286    0.9460    0.3565 H   0  0  0  0  0  0  0  0  0  0  0  0
    2.6479   -2.2691   -1.9998 H   0  0  0  0  0  0  0  0  0  0  0  0
    5.2479   -2.0699   -0.3612 H   0  0  0  0  0  0  0  0  0  0  0  0
    4.6090   -3.5463   -1.1090 H   0  0  0  0  0  0  0  0  0  0  0  0
    3.6967   -2.7386    0.1756 H   0  0  0  0  0  0  0  0  0  0  0  0
    3.8762   -1.2771   -3.9056 H   0  0  0  0  0  0  0  0  0  0  0  0
    4.5556   -2.8239   -3.4217 H   0  0  0  0  0  0  0  0  0  0  0  0
    6.2263   -0.9508   -3.9732 H   0  0  0  0  0  0  0  0  0  0  0  0
    6.5141   -1.7997   -2.4636 H   0  0  0  0  0  0  0  0  0  0  0  0
    6.2951    1.0229   -2.7307 H   0  0  0  0  0  0  0  0  0  0  0  0
    6.2680    0.1235   -1.2128 H   0  0  0  0  0  0  0  0  0  0  0  0
    3.3224    2.5103   -1.0223 H   0  0  0  0  0  0  0  0  0  0  0  0
    5.5428    3.2076   -1.6556 H   0  0  0  0  0  0  0  0  0  0  0  0
    3.4501    1.5561   -3.9700 H   0  0  0  0  0  0  0  0  0  0  0  0
    1.5137    1.0785   -1.7029 H   0  0  0  0  0  0  0  0  0  0  0  0
    1.8779   -0.9710   -3.9728 H   0  0  0  0  0  0  0  0  0  0  0  0
    0.6959    0.3451   -3.8735 H   0  0  0  0  0  0  0  0  0  0  0  0
    0.6144   -1.0037   -2.7223 H   0  0  0  0  0  0  0  0  0  0  0  0
  1  2  1  0
  1 15  1  0
  1 16  1  0
  1 17  1  0
  3  2  1  1
  2 18  1  0
  2 19  1  0
  3  4  1  0
  3  9  1  0
  3 13  1  0
  4  5  1  0
  4  6  1  0
  4 20  1  6
  5 21  1  0
  5 22  1  0
  5 23  1  0
  6  7  1  0
  6 24  1  0
  6 25  1  0
  7  8  1  0
  7 26  1  0
  7 27  1  0
  9  8  1  6
  8 28  1  0
  8 29  1  0
  9 10  1  0
  9 12  1  0
 10 11  1  0
 10 12  1  0
 10 30  1  1
 11 31  1  0
 12 13  1  0
 12 32  1  6
 13 14  1  0
 13 33  1  1
 14 34  1  0
 14 35  1  0
 14 36  1  0
M  END

