
     RDKit          3D

 29 31  0  0  0  0  0  0  0  0999 V2000
    0.9402    0.1247   -0.1337 C   0  0  0  0  0  0  0  0  0  0  0  0
    2.4371    0.1167   -0.1092 C   0  0  0  0  0  0  0  0  0  0  0  0
    3.2742    1.2011   -0.1339 C   0  0  0  0  0  0  0  0  0  0  0  0
    4.6123    0.8001   -0.1210 N   0  0  0  0  0  0  0  0  0  0  0  0
    5.7099    1.6850   -0.1543 C   0  0  0  0  0  0  0  0  0  0  0  0
    5.6929    2.8619    0.6145 C   0  0  0  0  0  0  0  0  0  0  0  0
    6.7623    3.7553    0.5611 C   0  0  0  0  0  0  0  0  0  0  0  0
    7.8739    3.4867   -0.2425 C   0  0  0  0  0  0  0  0  0  0  0  0
    9.3462    4.6774   -0.3151 Br  0  0  0  0  0  0  0  0  0  0  0  0
    7.8868    2.3111   -1.0016 C   0  0  0  0  0  0  0  0  0  0  0  0
    8.9284    2.0366   -1.7880 F   0  0  0  0  0  0  0  0  0  0  0  0
    6.8184    1.4201   -0.9736 C   0  0  0  0  0  0  0  0  0  0  0  0
    4.6403   -0.5938   -0.0741 C   0  0  0  0  0  0  0  0  0  0  0  0
    5.7163   -1.4893    0.0152 C   0  0  0  0  0  0  0  0  0  0  0  0
    5.4252   -2.8511    0.0792 C   0  0  0  0  0  0  0  0  0  0  0  0
    4.0957   -3.3197    0.0625 C   0  0  0  0  0  0  0  0  0  0  0  0
    3.0283   -2.4288   -0.0040 C   0  0  0  0  0  0  0  0  0  0  0  0
    3.2915   -1.0487   -0.0669 C   0  0  0  0  0  0  0  0  0  0  0  0
    0.5442    1.1497   -0.1883 H   0  0  0  0  0  0  0  0  0  0  0  0
    0.5176   -0.3492    0.7691 H   0  0  0  0  0  0  0  0  0  0  0  0
    0.5466   -0.4331   -1.0006 H   0  0  0  0  0  0  0  0  0  0  0  0
    3.0289    2.2591   -0.2015 H   0  0  0  0  0  0  0  0  0  0  0  0
    4.8466    3.0681    1.2714 H   0  0  0  0  0  0  0  0  0  0  0  0
    6.7463    4.6659    1.1624 H   0  0  0  0  0  0  0  0  0  0  0  0
    6.8557    0.5407   -1.6164 H   0  0  0  0  0  0  0  0  0  0  0  0
    6.7500   -1.1430    0.0461 H   0  0  0  0  0  0  0  0  0  0  0  0
    6.2469   -3.5683    0.1477 H   0  0  0  0  0  0  0  0  0  0  0  0
    3.9053   -4.3945    0.1114 H   0  0  0  0  0  0  0  0  0  0  0  0
    1.9984   -2.7948   -0.0003 H   0  0  0  0  0  0  0  0  0  0  0  0
  1  2  1  0
  1 19  1  0
  1 20  1  0
  1 21  1  0
  2  3  2  0
  2 18  1  0
  3  4  1  0
  3 22  1  0
  4  5  1  0
  4 13  1  0
  5  6  2  0
  5 12  1  0
  6  7  1  0
  6 23  1  0
  7  8  2  0
  7 24  1  0
  8  9  1  0
  8 10  1  0
 10 11  1  0
 10 12  2  0
 12 25  1  0
 13 14  1  0
 13 18  2  0
 14 15  2  0
 14 26  1  0
 15 16  1  0
 15 27  1  0
 16 17  2  0
 16 28  1  0
 17 18  1  0
 17 29  1  0
M  END

