
     RDKit          3D

 79 84  0  0  0  0  0  0  0  0999 V2000
   10.5685    1.8327   -7.3978 C   0  0  0  0  0  0  0  0  0  0  0  0
    9.3320    2.3973   -6.6970 C   0  0  0  0  0  0  0  0  0  0  0  0
    9.5003    2.5381   -5.2405 N   0  0  0  0  0  0  0  0  0  0  0  0
    9.0352    1.5541   -4.3831 C   0  0  0  0  0  0  0  0  0  0  0  0
    8.0975    0.5415   -4.8778 C   0  0  0  0  0  0  0  0  0  0  0  0
    8.0598   -0.7398   -4.4278 C   0  0  0  0  0  0  0  0  0  0  0  0
    7.1011   -1.7485   -4.8115 C   0  0  0  0  0  0  0  0  0  0  0  0
    5.9785   -1.6680   -5.6261 C   0  0  0  0  0  0  0  0  0  0  0  0
    5.2954   -2.8939   -5.7711 C   0  0  0  0  0  0  0  0  0  0  0  0
    5.8734   -3.9476   -5.0703 C   0  0  0  0  0  0  0  0  0  0  0  0
    5.4353   -5.3406   -4.9914 C   0  0  0  0  0  0  0  0  0  0  0  0
    6.2870   -6.3704   -4.5395 C   0  0  0  0  0  0  0  0  0  0  0  0
    5.8676   -7.6931   -4.4739 C   0  0  0  0  0  0  0  0  0  0  0  0
    4.5582   -8.0595   -4.8560 C   0  0  0  0  0  0  0  0  0  0  0  0
    4.1277   -9.3928   -4.7884 N   0  0  0  0  0  0  0  0  0  0  0  0
    4.6879  -10.2928   -3.8332 C   0  0  0  0  0  0  0  0  0  0  0  0
    4.7574   -9.9487   -2.4694 C   0  0  0  0  0  0  0  0  0  0  0  0
    5.2963  -10.8302   -1.5404 C   0  0  0  0  0  0  0  0  0  0  0  0
    5.7652  -12.0944   -1.9419 C   0  0  0  0  0  0  0  0  0  0  0  0
    6.2649  -12.8879   -0.9611 O   0  0  0  0  0  0  0  0  0  0  0  0
    6.7610  -14.1647   -1.2920 C   0  0  0  0  0  0  0  0  0  0  0  0
    5.6873  -12.4517   -3.2966 C   0  0  0  0  0  0  0  0  0  0  0  0
    5.1609  -11.5505   -4.2279 C   0  0  0  0  0  0  0  0  0  0  0  0
    3.1185   -9.8815   -5.6696 C   0  0  0  0  0  0  0  0  0  0  0  0
    3.2106   -9.6766   -7.0600 C   0  0  0  0  0  0  0  0  0  0  0  0
    2.2301  -10.1613   -7.9170 C   0  0  0  0  0  0  0  0  0  0  0  0
    1.1345  -10.8862   -7.4138 C   0  0  0  0  0  0  0  0  0  0  0  0
    0.2347  -11.3265   -8.3298 O   0  0  0  0  0  0  0  0  0  0  0  0
   -0.8892  -12.0577   -7.8961 C   0  0  0  0  0  0  0  0  0  0  0  0
    1.0415  -11.1081   -6.0316 C   0  0  0  0  0  0  0  0  0  0  0  0
    2.0229  -10.5998   -5.1741 C   0  0  0  0  0  0  0  0  0  0  0  0
    3.6971   -7.0335   -5.3057 C   0  0  0  0  0  0  0  0  0  0  0  0
    4.1284   -5.7149   -5.3712 C   0  0  0  0  0  0  0  0  0  0  0  0
    7.2833   -3.3833   -4.2137 S   0  0  0  0  0  0  0  0  0  0  0  0
    9.4276    1.5459   -3.0616 C   0  0  0  0  0  0  0  0  0  0  0  0
   10.3340    2.4844   -2.4908 C   0  0  0  0  0  0  0  0  0  0  0  0
   10.7648    2.2778   -1.1630 C   0  0  0  0  0  0  0  0  0  0  0  0
   11.6814    3.0795   -0.4249 C   0  0  0  0  0  0  0  0  0  0  0  0
   12.4288    3.6982    0.2208 N   0  0  0  0  0  0  0  0  0  0  0  0
   10.2899    1.1354   -0.4466 C   0  0  0  0  0  0  0  0  0  0  0  0
    9.8946    0.1983    0.1206 N   0  0  0  0  0  0  0  0  0  0  0  0
   10.7085    3.5982   -3.3689 C   0  0  0  0  0  0  0  0  0  0  0  0
   11.4592    4.7102   -2.9207 C   0  0  0  0  0  0  0  0  0  0  0  0
   11.8139    5.7525   -3.7625 C   0  0  0  0  0  0  0  0  0  0  0  0
   11.4203    5.7146   -5.1055 C   0  0  0  0  0  0  0  0  0  0  0  0
   10.6717    4.6497   -5.5835 C   0  0  0  0  0  0  0  0  0  0  0  0
   10.2861    3.5830   -4.7371 C   0  0  0  0  0  0  0  0  0  0  0  0
   10.3805    1.7515   -8.4801 H   0  0  0  0  0  0  0  0  0  0  0  0
   10.8057    0.8277   -7.0165 H   0  0  0  0  0  0  0  0  0  0  0  0
   11.4521    2.4715   -7.2519 H   0  0  0  0  0  0  0  0  0  0  0  0
    8.4825    1.7335   -6.8773 H   0  0  0  0  0  0  0  0  0  0  0  0
    9.0422    3.3697   -7.1184 H   0  0  0  0  0  0  0  0  0  0  0  0
    7.3615    0.8552   -5.6220 H   0  0  0  0  0  0  0  0  0  0  0  0
    8.8306   -1.0599   -3.7189 H   0  0  0  0  0  0  0  0  0  0  0  0
    5.6564   -0.7433   -6.1078 H   0  0  0  0  0  0  0  0  0  0  0  0
    4.4064   -3.0136   -6.3908 H   0  0  0  0  0  0  0  0  0  0  0  0
    7.3165   -6.1358   -4.2562 H   0  0  0  0  0  0  0  0  0  0  0  0
    6.5644   -8.4603   -4.1343 H   0  0  0  0  0  0  0  0  0  0  0  0
    4.3852   -8.9760   -2.1409 H   0  0  0  0  0  0  0  0  0  0  0  0
    5.3543  -10.5680   -0.4820 H   0  0  0  0  0  0  0  0  0  0  0  0
    7.1105  -14.6180   -0.3546 H   0  0  0  0  0  0  0  0  0  0  0  0
    7.6092  -14.1069   -1.9983 H   0  0  0  0  0  0  0  0  0  0  0  0
    5.9784  -14.8103   -1.7308 H   0  0  0  0  0  0  0  0  0  0  0  0
    6.0420  -13.4224   -3.6435 H   0  0  0  0  0  0  0  0  0  0  0  0
    5.1129  -11.8337   -5.2814 H   0  0  0  0  0  0  0  0  0  0  0  0
    4.0631   -9.1285   -7.4666 H   0  0  0  0  0  0  0  0  0  0  0  0
    2.2963  -10.0046   -8.9956 H   0  0  0  0  0  0  0  0  0  0  0  0
   -1.4682  -12.3061   -8.7958 H   0  0  0  0  0  0  0  0  0  0  0  0
   -1.5269  -11.4674   -7.2131 H   0  0  0  0  0  0  0  0  0  0  0  0
   -0.5999  -12.9956   -7.3877 H   0  0  0  0  0  0  0  0  0  0  0  0
    0.2064  -11.6650   -5.6062 H   0  0  0  0  0  0  0  0  0  0  0  0
    1.9368  -10.7701   -4.0990 H   0  0  0  0  0  0  0  0  0  0  0  0
    2.6726   -7.2770   -5.5900 H   0  0  0  0  0  0  0  0  0  0  0  0
    3.4190   -4.9508   -5.6962 H   0  0  0  0  0  0  0  0  0  0  0  0
    8.9985    0.7813   -2.4173 H   0  0  0  0  0  0  0  0  0  0  0  0
   11.7726    4.7556   -1.8815 H   0  0  0  0  0  0  0  0  0  0  0  0
   12.3962    6.5910   -3.3752 H   0  0  0  0  0  0  0  0  0  0  0  0
   11.6932    6.5246   -5.7864 H   0  0  0  0  0  0  0  0  0  0  0  0
   10.3761    4.6577   -6.6296 H   0  0  0  0  0  0  0  0  0  0  0  0
  1  2  1  0
  1 48  1  0
  1 49  1  0
  1 50  1  0
  2  3  1  0
  2 51  1  0
  2 52  1  0
  3  4  1  0
  3 47  1  0
  4  5  1  0
  4 35  2  0
  5  6  2  0
  5 53  1  0
  6  7  1  0
  6 54  1  0
  7  8  2  0
  7 34  1  0
  8  9  1  0
  8 55  1  0
  9 10  2  0
  9 56  1  0
 10 11  1  0
 10 34  1  0
 11 12  2  0
 11 33  1  0
 12 13  1  0
 12 57  1  0
 13 14  2  0
 13 58  1  0
 14 15  1  0
 14 32  1  0
 15 16  1  0
 15 24  1  0
 16 17  2  0
 16 23  1  0
 17 18  1  0
 17 59  1  0
 18 19  2  0
 18 60  1  0
 19 20  1  0
 19 22  1  0
 20 21  1  0
 21 61  1  0
 21 62  1  0
 21 63  1  0
 22 23  2  0
 22 64  1  0
 23 65  1  0
 24 25  2  0
 24 31  1  0
 25 26  1  0
 25 66  1  0
 26 27  2  0
 26 67  1  0
 27 28  1  0
 27 30  1  0
 28 29  1  0
 29 68  1  0
 29 69  1  0
 29 70  1  0
 30 31  2  0
 30 71  1  0
 31 72  1  0
 32 33  2  0
 32 73  1  0
 33 74  1  0
 35 36  1  0
 35 75  1  0
 36 37  2  0
 36 42  1  0
 37 38  1  0
 37 40  1  0
 38 39  3  0
 40 41  3  0
 42 43  1  0
 42 47  2  0
 43 44  2  0
 43 76  1  0
 44 45  1  0
 44 77  1  0
 45 46  2  0
 45 78  1  0
 46 47  1  0
 46 79  1  0
M  END

