
     RDKit          3D

 54 56  0  0  0  0  0  0  0  0999 V2000
    5.1839   -0.1479    1.8815 C   0  0  0  0  0  0  0  0  0  0  0  0
    3.9592   -0.7874    1.2484 C   0  0  0  0  0  0  0  0  0  0  0  0
    4.3146   -1.6858    0.1808 O   0  0  0  0  0  0  0  0  0  0  0  0
    4.5038   -1.1459   -1.0404 C   0  0  0  0  0  0  0  0  0  0  0  0
    4.3899    0.0388   -1.2765 O   0  0  0  0  0  0  0  0  0  0  0  0
    4.8604   -2.1448   -2.0619 C   0  0  0  0  0  0  0  0  0  0  0  0
    5.1290   -1.4980   -3.6719 S   0  0  0  0  0  0  0  0  0  0  0  0
    5.4722   -3.0837   -4.2760 C   0  0  0  0  0  0  0  0  0  0  0  0
    5.7847   -3.2970   -5.5813 N   0  0  0  0  0  0  0  0  0  0  0  0
    6.0189   -4.5378   -5.9012 C   0  0  0  0  0  0  0  0  0  0  0  0
    6.4707   -4.8930   -7.3160 C   0  0  1  0  0  0  0  0  0  0  0  0
    5.9629   -4.1626   -7.9793 H   0  0  0  0  0  0  0  0  0  0  0  0
    7.9808   -4.6182   -7.4067 C   0  0  0  0  0  0  0  0  0  0  0  0
    6.0688   -6.2712   -7.6282 N   0  0  0  0  0  0  0  0  0  0  0  0
    4.6286   -6.3536   -7.8591 C   0  0  0  0  0  0  0  0  0  0  0  0
    6.8249   -6.9527   -8.6852 C   0  0  0  0  0  0  0  0  0  0  0  0
    6.5607   -8.4452   -8.7393 C   0  0  0  0  0  0  0  0  0  0  0  0
    6.0716   -9.0605   -9.9030 C   0  0  0  0  0  0  0  0  0  0  0  0
    5.8555  -10.4349   -9.9612 C   0  0  0  0  0  0  0  0  0  0  0  0
    6.1211  -11.2405   -8.8414 C   0  0  0  0  0  0  0  0  0  0  0  0
    5.8793  -12.5675   -8.9851 O   0  0  0  0  0  0  0  0  0  0  0  0
    6.1164  -13.4357   -7.8998 C   0  0  0  0  0  0  0  0  0  0  0  0
    6.6088  -10.6418   -7.6679 C   0  0  0  0  0  0  0  0  0  0  0  0
    6.8231   -9.2610   -7.6315 C   0  0  0  0  0  0  0  0  0  0  0  0
    5.9574   -5.5609   -5.0084 N   0  0  0  0  0  0  0  0  0  0  0  0
    6.1176   -6.4970   -5.3852 H   0  0  0  0  0  0  0  0  0  0  0  0
    5.6365   -5.4496   -3.6374 C   0  0  0  0  0  0  0  0  0  0  0  0
    5.6037   -6.4476   -2.9382 O   0  0  0  0  0  0  0  0  0  0  0  0
    5.3784   -4.0591   -3.2672 C   0  0  0  0  0  0  0  0  0  0  0  0
    5.0234   -3.5206   -1.9841 C   0  0  0  0  0  0  0  0  0  0  0  0
    4.8583   -4.3575   -0.7439 C   0  0  0  0  0  0  0  0  0  0  0  0
    4.8796    0.4701    2.7416 H   0  0  0  0  0  0  0  0  0  0  0  0
    5.7015    0.5012    1.1602 H   0  0  0  0  0  0  0  0  0  0  0  0
    5.8884   -0.9142    2.2410 H   0  0  0  0  0  0  0  0  0  0  0  0
    3.2755   -0.0206    0.8558 H   0  0  0  0  0  0  0  0  0  0  0  0
    3.4189   -1.4166    1.9706 H   0  0  0  0  0  0  0  0  0  0  0  0
    8.1719   -3.5996   -7.0412 H   0  0  0  0  0  0  0  0  0  0  0  0
    8.3457   -4.6763   -8.4418 H   0  0  0  0  0  0  0  0  0  0  0  0
    8.5574   -5.3217   -6.7853 H   0  0  0  0  0  0  0  0  0  0  0  0
    4.0753   -5.9214   -7.0122 H   0  0  0  0  0  0  0  0  0  0  0  0
    4.3212   -7.4032   -7.9623 H   0  0  0  0  0  0  0  0  0  0  0  0
    4.3184   -5.8096   -8.7774 H   0  0  0  0  0  0  0  0  0  0  0  0
    7.8959   -6.7992   -8.4967 H   0  0  0  0  0  0  0  0  0  0  0  0
    6.6128   -6.5133   -9.6850 H   0  0  0  0  0  0  0  0  0  0  0  0
    5.8546   -8.4498  -10.7845 H   0  0  0  0  0  0  0  0  0  0  0  0
    5.4747  -10.9129  -10.8660 H   0  0  0  0  0  0  0  0  0  0  0  0
    5.8498  -14.4447   -8.2421 H   0  0  0  0  0  0  0  0  0  0  0  0
    5.4937  -13.1797   -7.0235 H   0  0  0  0  0  0  0  0  0  0  0  0
    7.1782  -13.4322   -7.5933 H   0  0  0  0  0  0  0  0  0  0  0  0
    6.8269  -11.2381   -6.7817 H   0  0  0  0  0  0  0  0  0  0  0  0
    7.2050   -8.8109   -6.7110 H   0  0  0  0  0  0  0  0  0  0  0  0
    5.0366   -5.4138   -0.9738 H   0  0  0  0  0  0  0  0  0  0  0  0
    3.8478   -4.2378   -0.3253 H   0  0  0  0  0  0  0  0  0  0  0  0
    5.5557   -4.0305    0.0421 H   0  0  0  0  0  0  0  0  0  0  0  0
  1  2  1  0
  1 32  1  0
  1 33  1  0
  1 34  1  0
  2  3  1  0
  2 35  1  0
  2 36  1  0
  3  4  1  0
  4  5  2  0
  4  6  1  0
  6  7  1  0
  6 30  2  0
  7  8  2  0
  8  9  1  0
  8 29  1  0
  9 10  2  0
 10 11  1  0
 10 25  1  0
 11 12  1  6
 11 13  1  0
 11 14  1  0
 13 37  1  0
 13 38  1  0
 13 39  1  0
 14 15  1  0
 14 16  1  0
 15 40  1  0
 15 41  1  0
 15 42  1  0
 16 17  1  0
 16 43  1  0
 16 44  1  0
 17 18  2  0
 17 24  1  0
 18 19  1  0
 18 45  1  0
 19 20  2  0
 19 46  1  0
 20 21  1  0
 20 23  1  0
 21 22  1  0
 22 47  1  0
 22 48  1  0
 22 49  1  0
 23 24  2  0
 23 50  1  0
 24 51  1  0
 25 26  1  0
 25 27  1  0
 27 28  1  0
 27 29  2  0
 29 30  1  0
 30 31  1  0
 31 52  1  0
 31 53  1  0
 31 54  1  0
M  CHG  2   7   1  28  -1
M  END

