
     RDKit          3D

 68 73  0  0  0  0  0  0  0  0999 V2000
    1.7028   -1.5187   -0.2009 O   0  0  0  0  0  0  0  0  0  0  0  0
    2.2317   -0.5885    0.3943 C   0  0  0  0  0  0  0  0  0  0  0  0
    2.0336   -0.4450    1.9116 C   0  0  0  0  0  0  0  0  0  0  0  0
    1.0214    0.5985    2.3060 C   0  0  0  0  0  0  0  0  0  0  0  0
    1.1945    1.6115    3.2235 C   0  0  0  0  0  0  0  0  0  0  0  0
    0.0300    2.3434    3.3484 N   0  0  0  0  0  0  0  0  0  0  0  0
   -0.1021    3.1281    3.9714 H   0  0  0  0  0  0  0  0  0  0  0  0
   -0.9307    1.8158    2.5127 C   0  0  0  0  0  0  0  0  0  0  0  0
   -2.2604    2.2037    2.2932 C   0  0  0  0  0  0  0  0  0  0  0  0
   -3.0045    1.4615    1.3804 C   0  0  0  0  0  0  0  0  0  0  0  0
   -2.4413    0.3585    0.7007 C   0  0  0  0  0  0  0  0  0  0  0  0
   -1.1215   -0.0255    0.9164 C   0  0  0  0  0  0  0  0  0  0  0  0
   -0.3420    0.7092    1.8342 C   0  0  0  0  0  0  0  0  0  0  0  0
    2.9912    0.3496   -0.2623 N   0  0  0  0  0  0  0  0  0  0  0  0
    3.1555    0.2437   -1.7100 C   0  0  0  0  0  0  0  0  0  0  0  0
    2.6242    1.4965   -2.4140 C   0  0  0  0  0  0  0  0  0  0  0  0
    3.2638    2.7890   -1.8595 C   0  0  2  0  0  0  0  0  0  0  0  0
    4.6999    2.9862   -2.3021 C   0  0  0  0  0  0  0  0  0  0  0  0
    5.6489    3.4990   -1.5757 N   0  0  0  0  0  0  0  0  0  0  0  0
    6.8395    3.6166   -2.2588 C   0  0  0  0  0  0  0  0  0  0  0  0
    8.1514    4.1007   -1.6964 C   0  0  0  0  0  0  0  0  0  0  0  0
    9.1735    3.8239   -2.3147 O   0  0  0  0  0  0  0  0  0  0  0  0
    8.1930    4.8184   -0.5251 N   0  0  0  0  0  0  0  0  0  0  0  0
    7.0867    5.4526    0.1824 C   0  0  0  0  0  0  0  0  0  0  0  0
    7.1858    5.1720    1.6806 C   0  0  0  0  0  0  0  0  0  0  0  0
    8.4897    5.5626    2.2147 N   0  0  0  0  0  0  0  0  0  0  0  0
    8.6076    5.7441    3.6079 C   0  0  0  0  0  0  0  0  0  0  0  0
    9.6498    5.1632    4.3598 C   0  0  0  0  0  0  0  0  0  0  0  0
    9.7705    5.3951    5.7338 C   0  0  0  0  0  0  0  0  0  0  0  0
    8.8369    6.1965    6.3787 C   0  0  0  0  0  0  0  0  0  0  0  0
    8.9444    6.4156    7.7007 F   0  0  0  0  0  0  0  0  0  0  0  0
    7.7886    6.7807    5.6693 C   0  0  0  0  0  0  0  0  0  0  0  0
    7.6829    6.5603    4.2982 C   0  0  0  0  0  0  0  0  0  0  0  0
    9.5906    4.9381    1.4957 C   0  0  0  0  0  0  0  0  0  0  0  0
    9.4952    5.2193   -0.0042 C   0  0  0  0  0  0  0  0  0  0  0  0
    6.7972    3.1724   -3.5598 C   0  0  0  0  0  0  0  0  0  0  0  0
    5.2241    2.5984   -3.9440 S   0  0  0  0  0  0  0  0  0  0  0  0
    3.1233    2.8145   -0.3244 C   0  0  0  0  0  0  0  0  0  0  0  0
    3.6284    1.5208    0.3292 C   0  0  0  0  0  0  0  0  0  0  0  0
    2.9896   -0.2523    2.4227 H   0  0  0  0  0  0  0  0  0  0  0  0
    1.6920   -1.4423    2.2283 H   0  0  0  0  0  0  0  0  0  0  0  0
    2.0720    1.8607    3.8189 H   0  0  0  0  0  0  0  0  0  0  0  0
   -2.6990    3.0546    2.8211 H   0  0  0  0  0  0  0  0  0  0  0  0
   -4.0448    1.7366    1.1881 H   0  0  0  0  0  0  0  0  0  0  0  0
   -3.0571   -0.2025   -0.0068 H   0  0  0  0  0  0  0  0  0  0  0  0
   -0.6854   -0.8750    0.3864 H   0  0  0  0  0  0  0  0  0  0  0  0
    2.6178   -0.6540   -2.0369 H   0  0  0  0  0  0  0  0  0  0  0  0
    4.2281    0.1037   -1.9429 H   0  0  0  0  0  0  0  0  0  0  0  0
    1.5343    1.5563   -2.2622 H   0  0  0  0  0  0  0  0  0  0  0  0
    2.7848    1.4101   -3.5018 H   0  0  0  0  0  0  0  0  0  0  0  0
    2.6992    3.6478   -2.2673 H   0  0  0  0  0  0  0  0  0  0  0  0
    6.1345    5.0748   -0.1991 H   0  0  0  0  0  0  0  0  0  0  0  0
    7.1349    6.5466    0.0185 H   0  0  0  0  0  0  0  0  0  0  0  0
    7.0002    4.0890    1.8530 H   0  0  0  0  0  0  0  0  0  0  0  0
    6.3900    5.7255    2.1955 H   0  0  0  0  0  0  0  0  0  0  0  0
   10.3792    4.5102    3.8813 H   0  0  0  0  0  0  0  0  0  0  0  0
   10.5805    4.9442    6.3109 H   0  0  0  0  0  0  0  0  0  0  0  0
    7.0751    7.4185    6.1954 H   0  0  0  0  0  0  0  0  0  0  0  0
    6.8809    7.0549    3.7474 H   0  0  0  0  0  0  0  0  0  0  0  0
    9.6192    3.8378    1.6573 H   0  0  0  0  0  0  0  0  0  0  0  0
   10.5410    5.3515    1.8640 H   0  0  0  0  0  0  0  0  0  0  0  0
   10.2690    4.6728   -0.5556 H   0  0  0  0  0  0  0  0  0  0  0  0
    9.6448    6.3014   -0.1805 H   0  0  0  0  0  0  0  0  0  0  0  0
    7.6265    3.1474   -4.2629 H   0  0  0  0  0  0  0  0  0  0  0  0
    2.0564    2.9395   -0.0783 H   0  0  0  0  0  0  0  0  0  0  0  0
    3.6670    3.6741    0.0931 H   0  0  0  0  0  0  0  0  0  0  0  0
    3.4269    1.5547    1.4042 H   0  0  0  0  0  0  0  0  0  0  0  0
    4.7237    1.4441    0.1999 H   0  0  0  0  0  0  0  0  0  0  0  0
  1  2  2  0
  2  3  1  0
  2 14  1  0
  3  4  1  0
  3 40  1  0
  3 41  1  0
  4  5  2  0
  4 13  1  0
  5  6  1  0
  5 42  1  0
  6  7  1  0
  6  8  1  0
  8  9  1  0
  8 13  2  0
  9 10  2  0
  9 43  1  0
 10 11  1  0
 10 44  1  0
 11 12  2  0
 11 45  1  0
 12 13  1  0
 12 46  1  0
 14 15  1  0
 14 39  1  0
 15 16  1  0
 15 47  1  0
 15 48  1  0
 16 17  1  0
 16 49  1  0
 16 50  1  0
 17 18  1  0
 17 38  1  0
 17 51  1  6
 18 19  2  0
 18 37  1  0
 19 20  1  0
 20 21  1  0
 20 36  2  0
 21 22  2  0
 21 23  1  0
 23 24  1  0
 23 35  1  0
 24 25  1  0
 24 52  1  0
 24 53  1  0
 25 26  1  0
 25 54  1  0
 25 55  1  0
 26 27  1  0
 26 34  1  0
 27 28  2  0
 27 33  1  0
 28 29  1  0
 28 56  1  0
 29 30  2  0
 29 57  1  0
 30 31  1  0
 30 32  1  0
 32 33  2  0
 32 58  1  0
 33 59  1  0
 34 35  1  0
 34 60  1  0
 34 61  1  0
 35 62  1  0
 35 63  1  0
 36 37  1  0
 36 64  1  0
 38 39  1  0
 38 65  1  0
 38 66  1  0
 39 67  1  0
 39 68  1  0
M  END

