
     RDKit          3D

 77 80  0  0  0  0  0  0  0  0999 V2000
    5.3575   -0.2222   -3.0888 C   0  0  0  0  0  0  0  0  0  0  0  0
    5.2406    1.1821   -3.1596 O   0  0  0  0  0  0  0  0  0  0  0  0
    4.8057    1.8669   -2.0814 C   0  0  0  0  0  0  0  0  0  0  0  0
    4.4403    1.2852   -0.8583 C   0  0  0  0  0  0  0  0  0  0  0  0
    3.9814    2.0679    0.2052 C   0  0  0  0  0  0  0  0  0  0  0  0
    3.9058    3.4594    0.0758 C   0  0  0  0  0  0  0  0  0  0  0  0
    3.4354    4.2823    1.1444 N   0  0  0  0  0  0  0  0  0  0  0  0
    2.2401    5.1027    1.0194 C   0  0  0  0  0  0  0  0  0  0  0  0
    2.5411    6.5977    0.7786 C   0  0  0  0  0  0  0  0  0  0  0  0
    3.6176    6.9292    0.2902 O   0  0  0  0  0  0  0  0  0  0  0  0
    1.5753    7.5165    1.0799 N   0  0  0  0  0  0  0  0  0  0  0  0
    1.9390    8.9457    0.9646 C   0  0  0  0  0  0  0  0  0  0  0  0
    1.6082    9.5942   -0.3693 C   0  0  0  0  0  0  0  0  0  0  0  0
    0.6356   10.6016   -0.4520 C   0  0  0  0  0  0  0  0  0  0  0  0
    0.3453   11.2306   -1.6672 C   0  0  0  0  0  0  0  0  0  0  0  0
    1.0348   10.8425   -2.8173 C   0  0  0  0  0  0  0  0  0  0  0  0
    0.6429   11.6880   -4.4845 Br  0  0  0  0  0  0  0  0  0  0  0  0
    2.0127    9.8445   -2.7619 C   0  0  0  0  0  0  0  0  0  0  0  0
    2.2970    9.2312   -1.5400 C   0  0  0  0  0  0  0  0  0  0  0  0
    0.3169    7.1754    1.7739 C   0  0  1  0  0  0  0  0  0  0  0  0
    0.4325    7.2902    3.2945 C   0  0  0  0  0  0  0  0  0  0  0  0
   -0.8490    8.0434    1.2356 C   0  0  0  0  0  0  0  0  0  0  0  0
   -1.2255    9.0490    1.8184 O   0  0  0  0  0  0  0  0  0  0  0  0
   -1.4074    7.5969    0.0811 N   0  0  0  0  0  0  0  0  0  0  0  0
   -2.4718    8.3246   -0.6194 C   0  0  1  0  0  0  0  0  0  0  0  0
   -2.4422    7.9903   -2.1196 C   0  0  0  0  0  0  0  0  0  0  0  0
   -2.9251    6.5629   -2.4228 C   0  0  0  0  0  0  0  0  0  0  0  0
   -4.3071    6.2912   -1.8125 C   0  0  0  0  0  0  0  0  0  0  0  0
   -4.3275    6.5948   -0.3078 C   0  0  0  0  0  0  0  0  0  0  0  0
   -3.8593    8.0258   -0.0161 C   0  0  0  0  0  0  0  0  0  0  0  0
    4.1534    4.2102    2.6789 S   0  0  1  0  0  0  0  0  0  0  0  0
    3.5391    5.3220    3.4178 O   0  0  0  0  0  0  0  0  0  0  0  0
    4.0650    2.8506    3.2232 O   0  0  0  0  0  0  0  0  0  0  0  0
    5.8918    4.5557    2.3897 C   0  0  0  0  0  0  0  0  0  0  0  0
    6.2694    5.7377    1.7430 C   0  0  0  0  0  0  0  0  0  0  0  0
    7.6312    6.0118    1.6002 C   0  0  0  0  0  0  0  0  0  0  0  0
    8.5892    5.1221    2.1007 C   0  0  0  0  0  0  0  0  0  0  0  0
    8.1919    3.9462    2.7440 C   0  0  0  0  0  0  0  0  0  0  0  0
    6.8334    3.6537    2.8925 C   0  0  0  0  0  0  0  0  0  0  0  0
    4.2905    4.0587   -1.1365 C   0  0  0  0  0  0  0  0  0  0  0  0
    4.7142    3.2731   -2.2023 C   0  0  0  0  0  0  0  0  0  0  0  0
    5.1676    4.0285   -3.7083 Cl  0  0  0  0  0  0  0  0  0  0  0  0
    5.7298   -0.5515   -4.0678 H   0  0  0  0  0  0  0  0  0  0  0  0
    4.3836   -0.7060   -2.8940 H   0  0  0  0  0  0  0  0  0  0  0  0
    6.0741   -0.5351   -2.3084 H   0  0  0  0  0  0  0  0  0  0  0  0
    4.4966    0.2042   -0.7290 H   0  0  0  0  0  0  0  0  0  0  0  0
    3.6908    1.6000    1.1458 H   0  0  0  0  0  0  0  0  0  0  0  0
    1.6084    4.9591    1.9036 H   0  0  0  0  0  0  0  0  0  0  0  0
    1.6751    4.7224    0.1524 H   0  0  0  0  0  0  0  0  0  0  0  0
    3.0207    9.0136    1.1442 H   0  0  0  0  0  0  0  0  0  0  0  0
    1.4224    9.4851    1.7687 H   0  0  0  0  0  0  0  0  0  0  0  0
    0.0831   10.8926    0.4445 H   0  0  0  0  0  0  0  0  0  0  0  0
   -0.4120   12.0149   -1.7170 H   0  0  0  0  0  0  0  0  0  0  0  0
    2.5550    9.5565   -3.6642 H   0  0  0  0  0  0  0  0  0  0  0  0
    3.0728    8.4650   -1.4845 H   0  0  0  0  0  0  0  0  0  0  0  0
    0.0679    6.1393    1.5098 H   0  0  0  0  0  0  0  0  0  0  0  0
    0.5759    8.3374    3.5953 H   0  0  0  0  0  0  0  0  0  0  0  0
    1.2782    6.6894    3.6605 H   0  0  0  0  0  0  0  0  0  0  0  0
   -0.4943    6.9404    3.7744 H   0  0  0  0  0  0  0  0  0  0  0  0
   -1.0009    6.7854   -0.3687 H   0  0  0  0  0  0  0  0  0  0  0  0
   -2.2548    9.3939   -0.4770 H   0  0  0  0  0  0  0  0  0  0  0  0
   -1.4301    8.1629   -2.5216 H   0  0  0  0  0  0  0  0  0  0  0  0
   -3.1051    8.7078   -2.6325 H   0  0  0  0  0  0  0  0  0  0  0  0
   -2.2025    5.8224   -2.0282 H   0  0  0  0  0  0  0  0  0  0  0  0
   -2.9439    6.4011   -3.5132 H   0  0  0  0  0  0  0  0  0  0  0  0
   -4.6099    5.2476   -2.0008 H   0  0  0  0  0  0  0  0  0  0  0  0
   -5.0553    6.9277   -2.3204 H   0  0  0  0  0  0  0  0  0  0  0  0
   -3.6681    5.8806    0.2189 H   0  0  0  0  0  0  0  0  0  0  0  0
   -5.3384    6.4367    0.1029 H   0  0  0  0  0  0  0  0  0  0  0  0
   -3.8312    8.2270    1.0660 H   0  0  0  0  0  0  0  0  0  0  0  0
   -4.5773    8.7442   -0.4508 H   0  0  0  0  0  0  0  0  0  0  0  0
    5.5116    6.4125    1.3392 H   0  0  0  0  0  0  0  0  0  0  0  0
    7.9455    6.9263    1.0915 H   0  0  0  0  0  0  0  0  0  0  0  0
    9.6526    5.3464    1.9850 H   0  0  0  0  0  0  0  0  0  0  0  0
    8.9407    3.2514    3.1322 H   0  0  0  0  0  0  0  0  0  0  0  0
    6.4951    2.7433    3.3889 H   0  0  0  0  0  0  0  0  0  0  0  0
    4.2599    5.1446   -1.2302 H   0  0  0  0  0  0  0  0  0  0  0  0
  1  2  1  0
  1 43  1  0
  1 44  1  0
  1 45  1  0
  2  3  1  0
  3  4  2  0
  3 41  1  0
  4  5  1  0
  4 46  1  0
  5  6  2  0
  5 47  1  0
  6  7  1  0
  6 40  1  0
  7  8  1  0
 31  7  1  6
  8  9  1  0
  8 48  1  0
  8 49  1  0
  9 10  2  0
  9 11  1  0
 11 12  1  0
 11 20  1  0
 12 13  1  0
 12 50  1  0
 12 51  1  0
 13 14  2  0
 13 19  1  0
 14 15  1  0
 14 52  1  0
 15 16  2  0
 15 53  1  0
 16 17  1  0
 16 18  1  0
 18 19  2  0
 18 54  1  0
 19 55  1  0
 20 21  1  0
 20 22  1  0
 20 56  1  1
 21 57  1  0
 21 58  1  0
 21 59  1  0
 22 23  2  0
 22 24  1  0
 24 25  1  0
 24 60  1  0
 25 26  1  0
 25 30  1  0
 25 61  1  6
 26 27  1  0
 26 62  1  0
 26 63  1  0
 27 28  1  0
 27 64  1  0
 27 65  1  0
 28 29  1  0
 28 66  1  0
 28 67  1  0
 29 30  1  0
 29 68  1  0
 29 69  1  0
 30 70  1  0
 30 71  1  0
 31 32  2  0
 31 33  2  0
 31 34  1  0
 34 35  2  0
 34 39  1  0
 35 36  1  0
 35 72  1  0
 36 37  2  0
 36 73  1  0
 37 38  1  0
 37 74  1  0
 38 39  2  0
 38 75  1  0
 39 76  1  0
 40 41  2  0
 40 77  1  0
 41 42  1  0
M  END

