
     RDKit          3D

 55 57  0  0  0  0  0  0  0  0999 V2000
    0.8399    0.5419   -0.8617 C   0  0  0  0  0  0  0  0  0  0  0  0
    2.2347    0.1587   -0.3396 C   0  0  1  0  0  0  0  0  0  0  0  0
    2.9201   -0.7864   -1.2054 N   0  0  0  0  0  0  0  0  0  0  0  0
    2.6438   -2.1339   -1.0537 C   0  0  0  0  0  0  0  0  0  0  0  0
    1.7973   -2.5194   -0.2550 O   0  0  0  0  0  0  0  0  0  0  0  0
    3.3654   -3.0064   -1.8505 N   0  0  0  0  0  0  0  0  0  0  0  0
    3.1247   -4.4382   -1.7041 C   0  0  0  0  0  0  0  0  0  0  0  0
    4.4511   -5.2008   -1.7013 C   0  0  0  0  0  0  0  0  0  0  0  0
    5.2966   -4.8398   -2.9288 C   0  0  0  0  0  0  0  0  0  0  0  0
    5.5053   -3.3171   -3.1029 C   0  0  1  0  0  0  0  0  0  0  0  0
    6.4204   -2.7470   -1.9923 C   0  0  0  0  0  0  0  0  0  0  0  0
    6.9984   -1.3917   -2.3157 C   0  0  0  0  0  0  0  0  0  0  0  0
    7.0034   -0.8543   -3.5433 C   0  0  0  0  0  0  0  0  0  0  0  0
    6.4372   -1.5595   -4.7467 C   0  0  0  0  0  0  0  0  0  0  0  0
    6.1628   -3.0452   -4.4740 C   0  0  0  0  0  0  0  0  0  0  0  0
    4.1107   -2.6409   -3.0466 C   0  0  0  0  0  0  0  0  0  0  0  0
    3.1165    1.3603   -0.1706 C   0  0  0  0  0  0  0  0  0  0  0  0
    4.3081    1.5535   -0.6493 N   0  0  0  0  0  0  0  0  0  0  0  0
    4.6279    2.8140   -0.1826 C   0  0  0  0  0  0  0  0  0  0  0  0
    5.9494    3.4878   -0.4791 C   0  0  1  0  0  0  0  0  0  0  0  0
    6.1110    3.5839   -2.0120 C   0  0  0  0  0  0  0  0  0  0  0  0
    5.9879    4.8906    0.1485 C   0  0  0  0  0  0  0  0  0  0  0  0
    7.0784    2.6113    0.1066 C   0  0  0  0  0  0  0  0  0  0  0  0
    3.6825    3.3586    0.5389 N   0  0  0  0  0  0  0  0  0  0  0  0
    2.6719    2.3933    0.5484 O   0  0  0  0  0  0  0  0  0  0  0  0
    0.2278   -0.3682   -0.9210 H   0  0  0  0  0  0  0  0  0  0  0  0
    0.9108    0.9944   -1.8628 H   0  0  0  0  0  0  0  0  0  0  0  0
    0.3505    1.2540   -0.1806 H   0  0  0  0  0  0  0  0  0  0  0  0
    2.0983   -0.3032    0.6558 H   0  0  0  0  0  0  0  0  0  0  0  0
    3.8249   -0.4826   -1.5514 H   0  0  0  0  0  0  0  0  0  0  0  0
    2.4928   -4.7951   -2.5437 H   0  0  0  0  0  0  0  0  0  0  0  0
    2.5557   -4.5914   -0.7797 H   0  0  0  0  0  0  0  0  0  0  0  0
    4.2500   -6.2850   -1.6868 H   0  0  0  0  0  0  0  0  0  0  0  0
    4.9999   -4.9696   -0.7729 H   0  0  0  0  0  0  0  0  0  0  0  0
    4.7875   -5.2220   -3.8330 H   0  0  0  0  0  0  0  0  0  0  0  0
    6.2763   -5.3458   -2.8897 H   0  0  0  0  0  0  0  0  0  0  0  0
    7.2486   -3.4560   -1.7987 H   0  0  0  0  0  0  0  0  0  0  0  0
    5.8658   -2.6888   -1.0406 H   0  0  0  0  0  0  0  0  0  0  0  0
    7.4388   -0.8311   -1.4837 H   0  0  0  0  0  0  0  0  0  0  0  0
    7.4307    0.1433   -3.6946 H   0  0  0  0  0  0  0  0  0  0  0  0
    7.1324   -1.4598   -5.5989 H   0  0  0  0  0  0  0  0  0  0  0  0
    5.5149   -1.0429   -5.0770 H   0  0  0  0  0  0  0  0  0  0  0  0
    7.1182   -3.5979   -4.5037 H   0  0  0  0  0  0  0  0  0  0  0  0
    5.5374   -3.4684   -5.2785 H   0  0  0  0  0  0  0  0  0  0  0  0
    3.5362   -2.9584   -3.9417 H   0  0  0  0  0  0  0  0  0  0  0  0
    4.2073   -1.5516   -3.1134 H   0  0  0  0  0  0  0  0  0  0  0  0
    5.3209    4.2099   -2.4562 H   0  0  0  0  0  0  0  0  0  0  0  0
    6.0618    2.5880   -2.4773 H   0  0  0  0  0  0  0  0  0  0  0  0
    7.0840    4.0369   -2.2604 H   0  0  0  0  0  0  0  0  0  0  0  0
    5.1852    5.5298   -0.2483 H   0  0  0  0  0  0  0  0  0  0  0  0
    6.9541    5.3711   -0.0713 H   0  0  0  0  0  0  0  0  0  0  0  0
    5.8643    4.8452    1.2407 H   0  0  0  0  0  0  0  0  0  0  0  0
    7.0455    1.5944   -0.3125 H   0  0  0  0  0  0  0  0  0  0  0  0
    6.9933    2.5341    1.2021 H   0  0  0  0  0  0  0  0  0  0  0  0
    8.0598    3.0529   -0.1290 H   0  0  0  0  0  0  0  0  0  0  0  0
  1  2  1  0
  1 26  1  0
  1 27  1  0
  1 28  1  0
  2  3  1  0
  2 17  1  0
  2 29  1  1
  3  4  1  0
  3 30  1  0
  4  5  2  0
  4  6  1  0
  6  7  1  0
  6 16  1  0
  7  8  1  0
  7 31  1  0
  7 32  1  0
  8  9  1  0
  8 33  1  0
  8 34  1  0
 10  9  1  1
  9 35  1  0
  9 36  1  0
 10 11  1  0
 10 15  1  0
 10 16  1  0
 11 12  1  0
 11 37  1  0
 11 38  1  0
 12 13  2  0
 12 39  1  0
 13 14  1  0
 13 40  1  0
 14 15  1  0
 14 41  1  0
 14 42  1  0
 15 43  1  0
 15 44  1  0
 16 45  1  0
 16 46  1  0
 17 18  2  0
 17 25  1  0
 18 19  1  0
 19 20  1  0
 19 24  2  0
 20 21  1  6
 20 22  1  0
 20 23  1  0
 21 47  1  0
 21 48  1  0
 21 49  1  0
 22 50  1  0
 22 51  1  0
 22 52  1  0
 23 53  1  0
 23 54  1  0
 23 55  1  0
 24 25  1  0
M  END

