
     RDKit          3D

 42 44  0  0  0  0  0  0  0  0999 V2000
    5.9989   -0.1950   -2.3715 O   0  0  0  0  0  0  0  0  0  0  0  0
    4.9113    0.1917   -2.7011 C   0  0  0  0  0  0  0  0  0  0  0  0
    4.4217   -0.1226   -3.9257 O   0  0  0  0  0  0  0  0  0  0  0  0
    3.9775    1.0247   -1.8291 C   0  0  0  0  0  0  0  0  0  0  0  0
    4.5853    1.4555   -0.4926 C   0  0  0  0  0  0  0  0  0  0  0  0
    5.7171    2.4992   -0.5861 C   0  0  1  0  0  0  0  0  0  0  0  0
    5.2696    3.8762   -1.1174 C   0  0  0  0  0  0  0  0  0  0  0  0
    4.4499    4.6524   -0.0795 C   0  0  0  0  0  0  0  0  0  0  0  0
    5.1823    4.7229    1.2616 C   0  0  0  0  0  0  0  0  0  0  0  0
    5.5484    3.3928    1.7348 N   0  0  0  0  0  0  0  0  0  0  0  0
    6.1023    3.4034    3.0792 C   0  0  0  0  0  0  0  0  0  0  0  0
    6.0875    2.0470    3.7652 C   0  0  0  0  0  0  0  0  0  0  0  0
    4.9468    1.2383    3.6824 C   0  0  0  0  0  0  0  0  0  0  0  0
    4.8799   -0.0000    4.3454 C   0  0  0  0  0  0  0  0  0  0  0  0
    3.3337   -1.0973    4.2367 Br  0  0  0  0  0  0  0  0  0  0  0  0
    5.9779   -0.4039    5.0875 C   0  0  0  0  0  0  0  0  0  0  0  0
    7.1137    0.4053    5.1679 C   0  0  0  0  0  0  0  0  0  0  0  0
    7.2029    1.6258    4.5222 C   0  0  0  0  0  0  0  0  0  0  0  0
    8.0381   -0.2060    5.9695 O   0  0  0  0  0  0  0  0  0  0  0  0
    7.5247   -1.5053    6.2498 C   0  0  0  0  0  0  0  0  0  0  0  0
    6.1614   -1.5310    5.8317 O   0  0  0  0  0  0  0  0  0  0  0  0
    6.4033    2.6952    0.7761 C   0  0  0  0  0  0  0  0  0  0  0  0
    3.5373    0.2526   -4.0422 H   0  0  0  0  0  0  0  0  0  0  0  0
    3.0742    0.4125   -1.6508 H   0  0  0  0  0  0  0  0  0  0  0  0
    3.6331    1.8929   -2.4199 H   0  0  0  0  0  0  0  0  0  0  0  0
    4.9854    0.5562    0.0019 H   0  0  0  0  0  0  0  0  0  0  0  0
    3.7807    1.8314    0.1577 H   0  0  0  0  0  0  0  0  0  0  0  0
    6.4805    2.0894   -1.2667 H   0  0  0  0  0  0  0  0  0  0  0  0
    4.7058    3.7806   -2.0608 H   0  0  0  0  0  0  0  0  0  0  0  0
    6.1735    4.4602   -1.3666 H   0  0  0  0  0  0  0  0  0  0  0  0
    3.4699    4.1700    0.0752 H   0  0  0  0  0  0  0  0  0  0  0  0
    4.2454    5.6750   -0.4383 H   0  0  0  0  0  0  0  0  0  0  0  0
    4.5407    5.2024    2.0194 H   0  0  0  0  0  0  0  0  0  0  0  0
    6.0844    5.3734    1.1514 H   0  0  0  0  0  0  0  0  0  0  0  0
    5.4977    4.1059    3.6800 H   0  0  0  0  0  0  0  0  0  0  0  0
    7.1417    3.8052    3.0980 H   0  0  0  0  0  0  0  0  0  0  0  0
    4.1019    1.5744    3.0809 H   0  0  0  0  0  0  0  0  0  0  0  0
    8.1054    2.2348    4.5976 H   0  0  0  0  0  0  0  0  0  0  0  0
    7.5840   -1.7043    7.3320 H   0  0  0  0  0  0  0  0  0  0  0  0
    8.1007   -2.2649    5.6852 H   0  0  0  0  0  0  0  0  0  0  0  0
    6.6802    1.7169    1.1977 H   0  0  0  0  0  0  0  0  0  0  0  0
    7.3554    3.2574    0.6229 H   0  0  0  0  0  0  0  0  0  0  0  0
  1  2  2  0
  2  3  1  0
  2  4  1  0
  3 23  1  0
  4  5  1  0
  4 24  1  0
  4 25  1  0
  5  6  1  0
  5 26  1  0
  5 27  1  0
  6  7  1  0
  6 22  1  0
  6 28  1  6
  7  8  1  0
  7 29  1  0
  7 30  1  0
  8  9  1  0
  8 31  1  0
  8 32  1  0
  9 10  1  0
  9 33  1  0
  9 34  1  0
 10 11  1  0
 10 22  1  0
 11 12  1  0
 11 35  1  0
 11 36  1  0
 12 13  2  0
 12 18  1  0
 13 14  1  0
 13 37  1  0
 14 15  1  0
 14 16  2  0
 16 17  1  0
 16 21  1  0
 17 18  2  0
 17 19  1  0
 18 38  1  0
 19 20  1  0
 20 21  1  0
 20 39  1  0
 20 40  1  0
 22 41  1  0
 22 42  1  0
M  END

