
     RDKit          3D

 40 41  0  0  0  0  0  0  0  0999 V2000
    1.1544   -0.2713    0.2793 C   0  0  0  0  0  0  0  0  0  0  0  0
    2.6622   -0.0210    0.0966 C   0  0  1  0  0  0  0  0  0  0  0  0
    3.2222    0.5067    1.4291 C   0  0  0  0  0  0  0  0  0  0  0  0
    3.4031   -1.3391   -0.2272 C   0  0  0  0  0  0  0  0  0  0  0  0
    3.0814   -1.8637   -1.5726 N   0  0  0  0  0  0  0  0  0  0  0  0
    3.6156   -3.4531   -1.8406 S   0  0  1  0  0  0  0  0  0  0  0  0
    3.9872   -3.6144   -3.2411 O   0  0  0  0  0  0  0  0  0  0  0  0
    4.5492   -3.7981   -0.7688 O   0  0  0  0  0  0  0  0  0  0  0  0
    2.0990   -4.4640   -1.5262 C   0  0  0  0  0  0  0  0  0  0  0  0
    2.2039   -5.7480   -0.9514 C   0  0  0  0  0  0  0  0  0  0  0  0
    3.7177   -6.5621   -0.6945 Cl  0  0  0  0  0  0  0  0  0  0  0  0
    1.0546   -6.4680   -0.5865 C   0  0  0  0  0  0  0  0  0  0  0  0
   -0.2132   -5.9372   -0.7938 C   0  0  0  0  0  0  0  0  0  0  0  0
   -0.3483   -4.6950   -1.4122 C   0  0  0  0  0  0  0  0  0  0  0  0
    0.7964   -4.0020   -1.7976 C   0  0  0  0  0  0  0  0  0  0  0  0
    0.5377   -2.7914   -2.6094 N   0  0  0  0  0  0  0  0  0  0  0  0
    1.1601   -2.6830   -3.6479 O   0  0  0  0  0  0  0  0  0  0  0  0
   -0.3419   -2.0378   -2.2262 O   0  0  0  0  0  0  0  0  0  0  0  0
    3.3736   -0.9063   -2.6627 C   0  0  0  0  0  0  0  0  0  0  0  0
    2.5859    0.3801   -2.4234 C   0  0  0  0  0  0  0  0  0  0  0  0
    2.9040    1.0170   -1.0594 C   0  0  2  0  0  0  0  0  0  0  0  0
    4.2321    1.6263   -1.1171 N   0  0  0  0  0  0  0  0  0  0  0  0
    0.9761   -0.9580    1.1236 H   0  0  0  0  0  0  0  0  0  0  0  0
    0.6809   -0.7112   -0.6065 H   0  0  0  0  0  0  0  0  0  0  0  0
    0.6324    0.6725    0.5073 H   0  0  0  0  0  0  0  0  0  0  0  0
    3.0272   -0.2071    2.2458 H   0  0  0  0  0  0  0  0  0  0  0  0
    2.7410    1.4603    1.7029 H   0  0  0  0  0  0  0  0  0  0  0  0
    4.3090    0.6742    1.3885 H   0  0  0  0  0  0  0  0  0  0  0  0
    3.1444   -2.1000    0.5223 H   0  0  0  0  0  0  0  0  0  0  0  0
    4.4950   -1.1824   -0.1434 H   0  0  0  0  0  0  0  0  0  0  0  0
    1.1838   -7.4533   -0.1367 H   0  0  0  0  0  0  0  0  0  0  0  0
   -1.0991   -6.5004   -0.4933 H   0  0  0  0  0  0  0  0  0  0  0  0
   -1.3252   -4.2603   -1.6239 H   0  0  0  0  0  0  0  0  0  0  0  0
    3.0918   -1.3636   -3.6167 H   0  0  0  0  0  0  0  0  0  0  0  0
    4.4604   -0.6981   -2.7098 H   0  0  0  0  0  0  0  0  0  0  0  0
    1.5119    0.1581   -2.5086 H   0  0  0  0  0  0  0  0  0  0  0  0
    2.8402    1.1022   -3.2140 H   0  0  0  0  0  0  0  0  0  0  0  0
    2.1932    1.8464   -0.8982 H   0  0  0  0  0  0  0  0  0  0  0  0
    4.9727    0.9280   -1.1760 H   0  0  0  0  0  0  0  0  0  0  0  0
    4.4225    2.1854   -0.2882 H   0  0  0  0  0  0  0  0  0  0  0  0
  2  1  1  1
  1 23  1  0
  1 24  1  0
  1 25  1  0
  2  3  1  0
  2  4  1  0
  2 21  1  0
  3 26  1  0
  3 27  1  0
  3 28  1  0
  4  5  1  0
  4 29  1  0
  4 30  1  0
  5  6  1  0
  5 19  1  0
  6  7  2  0
  6  8  2  0
  6  9  1  1
  9 10  2  0
  9 15  1  0
 10 11  1  0
 10 12  1  0
 12 13  2  0
 12 31  1  0
 13 14  1  0
 13 32  1  0
 14 15  2  0
 14 33  1  0
 15 16  1  0
 16 17  2  0
 16 18  1  0
 19 20  1  0
 19 34  1  0
 19 35  1  0
 20 21  1  0
 20 36  1  0
 20 37  1  0
 21 22  1  0
 21 38  1  1
 22 39  1  0
 22 40  1  0
M  CHG  2  16   1  18  -1
M  END

