
     RDKit          3D

 28 29  0  0  0  0  0  0  0  0999 V2000
    2.0526    0.4377   -0.5641 N   0  0  0  0  0  0  0  0  0  0  0  0
    2.6538    0.1197    0.6113 C   0  0  0  0  0  0  0  0  0  0  0  0
    2.6416    1.1852    1.8874 S   0  0  0  0  0  0  0  0  0  0  0  0
    3.3057   -1.2259    0.6811 C   0  0  0  0  0  0  0  0  0  0  0  0
    4.4909   -1.3440    1.4302 C   0  0  0  0  0  0  0  0  0  0  0  0
    5.1893   -2.5438    1.5207 C   0  0  0  0  0  0  0  0  0  0  0  0
    4.6822   -3.6761    0.8762 C   0  0  0  0  0  0  0  0  0  0  0  0
    3.4913   -3.6022    0.1591 C   0  0  0  0  0  0  0  0  0  0  0  0
    2.7892   -2.3891    0.0404 C   0  0  0  0  0  0  0  0  0  0  0  0
    1.5723   -2.3313   -0.6644 N   0  0  0  0  0  0  0  0  0  0  0  0
    1.0197   -3.3541   -1.4473 C   0  0  0  0  0  0  0  0  0  0  0  0
   -0.2902   -3.8115   -1.2265 C   0  0  0  0  0  0  0  0  0  0  0  0
   -0.8787   -4.7685   -2.0574 C   0  0  0  0  0  0  0  0  0  0  0  0
   -2.6550   -5.3552   -1.7517 Br  0  0  0  0  0  0  0  0  0  0  0  0
   -0.1402   -5.3109   -3.1133 C   0  0  0  0  0  0  0  0  0  0  0  0
   -0.6755   -6.2356   -3.9094 F   0  0  0  0  0  0  0  0  0  0  0  0
    1.1661   -4.8864   -3.3510 C   0  0  0  0  0  0  0  0  0  0  0  0
    1.7212   -3.9089   -2.5353 C   0  0  0  0  0  0  0  0  0  0  0  0
    2.9578   -3.4713   -2.7986 F   0  0  0  0  0  0  0  0  0  0  0  0
    1.6861    1.3789   -0.6586 H   0  0  0  0  0  0  0  0  0  0  0  0
    2.2001   -0.1205   -1.3986 H   0  0  0  0  0  0  0  0  0  0  0  0
    4.8531   -0.4486    1.9379 H   0  0  0  0  0  0  0  0  0  0  0  0
    6.1173   -2.5968    2.0936 H   0  0  0  0  0  0  0  0  0  0  0  0
    5.2060   -4.6330    0.9458 H   0  0  0  0  0  0  0  0  0  0  0  0
    3.0828   -4.5042   -0.2979 H   0  0  0  0  0  0  0  0  0  0  0  0
    0.8998   -1.6622   -0.3061 H   0  0  0  0  0  0  0  0  0  0  0  0
   -0.8593   -3.4110   -0.3858 H   0  0  0  0  0  0  0  0  0  0  0  0
    1.7363   -5.2975   -4.1851 H   0  0  0  0  0  0  0  0  0  0  0  0
  1  2  1  0
  1 20  1  0
  1 21  1  0
  2  3  2  0
  2  4  1  0
  4  5  2  0
  4  9  1  0
  5  6  1  0
  5 22  1  0
  6  7  2  0
  6 23  1  0
  7  8  1  0
  7 24  1  0
  8  9  2  0
  8 25  1  0
  9 10  1  0
 10 11  1  0
 10 26  1  0
 11 12  2  0
 11 18  1  0
 12 13  1  0
 12 27  1  0
 13 14  1  0
 13 15  2  0
 15 16  1  0
 15 17  1  0
 17 18  2  0
 17 28  1  0
 18 19  1  0
M  END

