
     RDKit          3D

 46 49  0  0  0  0  0  0  0  0999 V2000
    6.9927    6.1682    1.5852 C   0  0  0  0  0  0  0  0  0  0  0  0
    6.4136    4.8897    1.7029 O   0  0  0  0  0  0  0  0  0  0  0  0
    7.0651    3.9270    2.4067 C   0  0  0  0  0  0  0  0  0  0  0  0
    8.3016    4.1063    3.0420 C   0  0  0  0  0  0  0  0  0  0  0  0
    8.8748    3.0301    3.7339 C   0  0  0  0  0  0  0  0  0  0  0  0
    8.2379    1.7939    3.8029 C   0  0  0  0  0  0  0  0  0  0  0  0
    6.9948    1.6106    3.1686 C   0  0  0  0  0  0  0  0  0  0  0  0
    6.2606    0.2859    3.2795 C   0  0  0  0  0  0  0  0  0  0  0  0
    7.1322   -0.8718    3.1049 N   0  0  0  0  0  0  0  0  0  0  0  0
    7.7116   -1.0102    1.7701 C   0  0  0  0  0  0  0  0  0  0  0  0
    6.6796   -1.3697    0.6754 C   0  0  0  0  0  0  0  0  0  0  0  0
    5.7800   -2.4575    1.1846 C   0  0  0  0  0  0  0  0  0  0  0  0
    5.0097   -3.2041    0.4313 N   0  0  0  0  0  0  0  0  0  0  0  0
    4.3617   -4.0567    1.3022 O   0  0  0  0  0  0  0  0  0  0  0  0
    4.7534   -3.8167    2.5817 C   0  0  0  0  0  0  0  0  0  0  0  0
    4.1773   -4.7259    3.5775 C   0  0  0  0  0  0  0  0  0  0  0  0
    3.8200   -6.0295    3.1830 C   0  0  0  0  0  0  0  0  0  0  0  0
    3.2581   -6.9284    4.0786 C   0  0  0  0  0  0  0  0  0  0  0  0
    2.8244   -8.5584    3.5827 Cl  0  0  0  0  0  0  0  0  0  0  0  0
    3.0224   -6.5638    5.4187 C   0  0  0  0  0  0  0  0  0  0  0  0
    2.4862   -7.4054    6.3192 O   0  0  0  0  0  0  0  0  0  0  0  0
    3.3613   -5.2670    5.8184 C   0  0  0  0  0  0  0  0  0  0  0  0
    3.9180   -4.3538    4.9181 C   0  0  0  0  0  0  0  0  0  0  0  0
    4.2037   -3.0844    5.3031 O   0  0  0  0  0  0  0  0  0  0  0  0
    5.6694   -2.7889    2.5731 C   0  0  0  0  0  0  0  0  0  0  0  0
    6.5715   -2.1303    3.5929 C   0  0  0  0  0  0  0  0  0  0  0  0
    6.4238    2.6764    2.4730 C   0  0  0  0  0  0  0  0  0  0  0  0
    6.2997    6.7728    0.9845 H   0  0  0  0  0  0  0  0  0  0  0  0
    7.9714    6.1328    1.0725 H   0  0  0  0  0  0  0  0  0  0  0  0
    7.1277    6.6528    2.5695 H   0  0  0  0  0  0  0  0  0  0  0  0
    8.8235    5.0625    3.0036 H   0  0  0  0  0  0  0  0  0  0  0  0
    9.8408    3.1719    4.2266 H   0  0  0  0  0  0  0  0  0  0  0  0
    8.6928    0.9552    4.3333 H   0  0  0  0  0  0  0  0  0  0  0  0
    5.3905    0.2984    2.5883 H   0  0  0  0  0  0  0  0  0  0  0  0
    5.8302    0.2119    4.2935 H   0  0  0  0  0  0  0  0  0  0  0  0
    8.4779   -1.8032    1.8207 H   0  0  0  0  0  0  0  0  0  0  0  0
    8.2343   -0.0794    1.5046 H   0  0  0  0  0  0  0  0  0  0  0  0
    7.1815   -1.6846   -0.2530 H   0  0  0  0  0  0  0  0  0  0  0  0
    6.0734   -0.4851    0.4142 H   0  0  0  0  0  0  0  0  0  0  0  0
    3.9915   -6.3359    2.1514 H   0  0  0  0  0  0  0  0  0  0  0  0
    2.3077   -8.2525    5.8769 H   0  0  0  0  0  0  0  0  0  0  0  0
    3.1640   -4.9795    6.8544 H   0  0  0  0  0  0  0  0  0  0  0  0
    3.9428   -2.9577    6.2251 H   0  0  0  0  0  0  0  0  0  0  0  0
    7.4083   -2.8165    3.8267 H   0  0  0  0  0  0  0  0  0  0  0  0
    6.0400   -1.9545    4.5359 H   0  0  0  0  0  0  0  0  0  0  0  0
    5.4636    2.5669    1.9626 H   0  0  0  0  0  0  0  0  0  0  0  0
  1  2  1  0
  1 28  1  0
  1 29  1  0
  1 30  1  0
  2  3  1  0
  3  4  2  0
  3 27  1  0
  4  5  1  0
  4 31  1  0
  5  6  2  0
  5 32  1  0
  6  7  1  0
  6 33  1  0
  7  8  1  0
  7 27  2  0
  8  9  1  0
  8 34  1  0
  8 35  1  0
  9 10  1  0
  9 26  1  0
 10 11  1  0
 10 36  1  0
 10 37  1  0
 11 12  1  0
 11 38  1  0
 11 39  1  0
 12 13  2  0
 12 25  1  0
 13 14  1  0
 14 15  1  0
 15 16  1  0
 15 25  2  0
 16 17  2  0
 16 23  1  0
 17 18  1  0
 17 40  1  0
 18 19  1  0
 18 20  2  0
 20 21  1  0
 20 22  1  0
 21 41  1  0
 22 23  2  0
 22 42  1  0
 23 24  1  0
 24 43  1  0
 25 26  1  0
 26 44  1  0
 26 45  1  0
 27 46  1  0
M  END

