
     RDKit          3D

 46 47  0  0  0  0  0  0  0  0999 V2000
    0.6460   -1.7868   -0.5766 C   0  0  0  0  0  0  0  0  0  0  0  0
    2.1607   -1.9706   -0.6711 C   0  0  0  0  0  0  0  0  0  0  0  0
    2.8785   -1.7375    0.6568 C   0  0  0  0  0  0  0  0  0  0  0  0
    4.3952   -1.8699    0.5827 C   0  0  0  0  0  0  0  0  0  0  0  0
    4.9755   -1.9897   -0.4744 O   0  0  0  0  0  0  0  0  0  0  0  0
    5.1432   -1.8454    1.9113 C   0  0  0  0  0  0  0  0  0  0  0  0
    6.6615   -1.7579    1.7753 C   0  0  0  0  0  0  0  0  0  0  0  0
    7.3909   -1.7932    3.1296 C   0  0  0  0  0  0  0  0  0  0  0  0
    8.8967   -1.7076    3.0076 C   0  0  0  0  0  0  0  0  0  0  0  0
    9.5669   -0.4815    3.0814 C   0  0  0  0  0  0  0  0  0  0  0  0
   10.9563   -0.3851    2.9328 C   0  0  0  0  0  0  0  0  0  0  0  0
   11.7111   -1.5439    2.7030 C   0  0  0  0  0  0  0  0  0  0  0  0
   13.0625   -1.5688    2.5464 O   0  0  0  0  0  0  0  0  0  0  0  0
   13.7951   -0.3643    2.6254 C   0  0  0  0  0  0  0  0  0  0  0  0
   15.2717   -0.6431    2.4590 C   0  0  0  0  0  0  0  0  0  0  0  0
   16.1291    0.3950    2.0646 C   0  0  0  0  0  0  0  0  0  0  0  0
   17.5044    0.1790    1.9510 C   0  0  0  0  0  0  0  0  0  0  0  0
   18.0400   -1.0840    2.2228 C   0  0  0  0  0  0  0  0  0  0  0  0
   17.1903   -2.1245    2.6086 C   0  0  0  0  0  0  0  0  0  0  0  0
   15.8145   -1.9064    2.7286 C   0  0  0  0  0  0  0  0  0  0  0  0
   11.0551   -2.7845    2.6260 C   0  0  0  0  0  0  0  0  0  0  0  0
    9.6742   -2.8574    2.7755 C   0  0  0  0  0  0  0  0  0  0  0  0
    0.1604   -1.9630   -1.5494 H   0  0  0  0  0  0  0  0  0  0  0  0
    0.3819   -0.7650   -0.2549 H   0  0  0  0  0  0  0  0  0  0  0  0
    0.1966   -2.4856    0.1493 H   0  0  0  0  0  0  0  0  0  0  0  0
    2.5835   -1.2884   -1.4262 H   0  0  0  0  0  0  0  0  0  0  0  0
    2.3977   -2.9856   -1.0324 H   0  0  0  0  0  0  0  0  0  0  0  0
    2.5050   -2.4216    1.4416 H   0  0  0  0  0  0  0  0  0  0  0  0
    2.6614   -0.7228    1.0445 H   0  0  0  0  0  0  0  0  0  0  0  0
    4.8529   -2.7623    2.4606 H   0  0  0  0  0  0  0  0  0  0  0  0
    4.7447   -1.0153    2.5238 H   0  0  0  0  0  0  0  0  0  0  0  0
    6.9291   -0.8347    1.2348 H   0  0  0  0  0  0  0  0  0  0  0  0
    7.0155   -2.5820    1.1355 H   0  0  0  0  0  0  0  0  0  0  0  0
    7.1181   -2.7224    3.6611 H   0  0  0  0  0  0  0  0  0  0  0  0
    7.0270   -0.9629    3.7598 H   0  0  0  0  0  0  0  0  0  0  0  0
    8.9950    0.4334    3.2641 H   0  0  0  0  0  0  0  0  0  0  0  0
   11.4314    0.5937    3.0006 H   0  0  0  0  0  0  0  0  0  0  0  0
   13.6151    0.1220    3.6056 H   0  0  0  0  0  0  0  0  0  0  0  0
   13.4569    0.3470    1.8480 H   0  0  0  0  0  0  0  0  0  0  0  0
   15.7165    1.3836    1.8400 H   0  0  0  0  0  0  0  0  0  0  0  0
   18.1590    0.9978    1.6414 H   0  0  0  0  0  0  0  0  0  0  0  0
   19.1152   -1.2568    2.1292 H   0  0  0  0  0  0  0  0  0  0  0  0
   17.6005   -3.1161    2.8175 H   0  0  0  0  0  0  0  0  0  0  0  0
   15.1491   -2.7189    3.0239 H   0  0  0  0  0  0  0  0  0  0  0  0
   11.6546   -3.6799    2.4489 H   0  0  0  0  0  0  0  0  0  0  0  0
    9.1851   -3.8344    2.7149 H   0  0  0  0  0  0  0  0  0  0  0  0
  1  2  1  0
  1 23  1  0
  1 24  1  0
  1 25  1  0
  2  3  1  0
  2 26  1  0
  2 27  1  0
  3  4  1  0
  3 28  1  0
  3 29  1  0
  4  5  2  0
  4  6  1  0
  6  7  1  0
  6 30  1  0
  6 31  1  0
  7  8  1  0
  7 32  1  0
  7 33  1  0
  8  9  1  0
  8 34  1  0
  8 35  1  0
  9 10  2  0
  9 22  1  0
 10 11  1  0
 10 36  1  0
 11 12  2  0
 11 37  1  0
 12 13  1  0
 12 21  1  0
 13 14  1  0
 14 15  1  0
 14 38  1  0
 14 39  1  0
 15 16  2  0
 15 20  1  0
 16 17  1  0
 16 40  1  0
 17 18  2  0
 17 41  1  0
 18 19  1  0
 18 42  1  0
 19 20  2  0
 19 43  1  0
 20 44  1  0
 21 22  2  0
 21 45  1  0
 22 46  1  0
M  END

