
     RDKit          3D

 44 46  0  0  0  0  0  0  0  0999 V2000
    5.2712   -5.9500    2.1180 C   0  0  0  0  0  0  0  0  0  0  0  0
    5.5103   -4.6835    1.3723 C   0  0  0  0  0  0  0  0  0  0  0  0
    6.7980   -4.2622    1.2851 O   0  0  0  0  0  0  0  0  0  0  0  0
    6.8098   -3.0629    0.6419 C   0  0  0  0  0  0  0  0  0  0  0  0
    5.5442   -2.6975    0.3042 C   0  0  0  0  0  0  0  0  0  0  0  0
    4.6844   -3.7596    0.7670 C   0  0  0  0  0  0  0  0  0  0  0  0
    3.2271   -3.7643    0.6420 C   0  0  0  0  0  0  0  0  0  0  0  0
    2.4505   -2.7325    0.8875 N   0  0  0  0  0  0  0  0  0  0  0  0
    1.1569   -3.1000    0.6310 N   0  0  0  0  0  0  0  0  0  0  0  0
    1.1753   -4.3502    0.2273 C   0  0  0  0  0  0  0  0  0  0  0  0
   -0.2072   -5.3405   -0.2378 S   0  0  0  0  0  0  0  0  0  0  0  0
   -1.4561   -4.0157   -0.0814 C   0  0  0  0  0  0  0  0  0  0  0  0
   -2.8166   -4.6058   -0.4327 C   0  0  0  0  0  0  0  0  0  0  0  0
   -2.9256   -5.7815   -0.7231 O   0  0  0  0  0  0  0  0  0  0  0  0
   -3.8915   -3.7212   -0.4090 N   0  0  0  0  0  0  0  0  0  0  0  0
   -3.6876   -2.2973   -0.1325 C   0  0  0  0  0  0  0  0  0  0  0  0
   -5.1885   -4.1391   -0.8162 C   0  0  0  0  0  0  0  0  0  0  0  0
   -5.6871   -5.4204   -0.5021 C   0  0  0  0  0  0  0  0  0  0  0  0
   -6.9719   -5.7884   -0.8883 C   0  0  0  0  0  0  0  0  0  0  0  0
   -7.7677   -4.8808   -1.5893 C   0  0  0  0  0  0  0  0  0  0  0  0
   -9.1289   -5.2724   -1.9946 N   0  0  0  0  0  0  0  0  0  0  0  0
   -9.5027   -6.3985   -1.7062 O   0  0  0  0  0  0  0  0  0  0  0  0
   -9.8000   -4.4456   -2.5932 O   0  0  0  0  0  0  0  0  0  0  0  0
   -7.3000   -3.6083   -1.9125 C   0  0  0  0  0  0  0  0  0  0  0  0
   -6.0132   -3.2433   -1.5260 C   0  0  0  0  0  0  0  0  0  0  0  0
    2.4591   -4.8348    0.2040 N   0  0  0  0  0  0  0  0  0  0  0  0
    2.8862   -6.1211   -0.3151 C   0  0  0  0  0  0  0  0  0  0  0  0
    5.8330   -5.9453    3.0656 H   0  0  0  0  0  0  0  0  0  0  0  0
    5.5979   -6.8383    1.5497 H   0  0  0  0  0  0  0  0  0  0  0  0
    4.2048   -6.0629    2.3547 H   0  0  0  0  0  0  0  0  0  0  0  0
    7.7849   -2.6032    0.5048 H   0  0  0  0  0  0  0  0  0  0  0  0
    5.2259   -1.7935   -0.2088 H   0  0  0  0  0  0  0  0  0  0  0  0
   -1.1799   -3.1774   -0.7380 H   0  0  0  0  0  0  0  0  0  0  0  0
   -1.4248   -3.6221    0.9456 H   0  0  0  0  0  0  0  0  0  0  0  0
   -2.9067   -2.1609    0.6246 H   0  0  0  0  0  0  0  0  0  0  0  0
   -4.6143   -1.8718    0.2728 H   0  0  0  0  0  0  0  0  0  0  0  0
   -3.4012   -1.7244   -1.0313 H   0  0  0  0  0  0  0  0  0  0  0  0
   -5.0652   -6.1279    0.0393 H   0  0  0  0  0  0  0  0  0  0  0  0
   -7.3733   -6.7721   -0.6459 H   0  0  0  0  0  0  0  0  0  0  0  0
   -7.9433   -2.9261   -2.4673 H   0  0  0  0  0  0  0  0  0  0  0  0
   -5.6468   -2.2537   -1.7994 H   0  0  0  0  0  0  0  0  0  0  0  0
    2.3217   -6.3551   -1.2303 H   0  0  0  0  0  0  0  0  0  0  0  0
    2.7226   -6.9301    0.4144 H   0  0  0  0  0  0  0  0  0  0  0  0
    3.9545   -6.0716   -0.5608 H   0  0  0  0  0  0  0  0  0  0  0  0
  1  2  1  0
  1 28  1  0
  1 29  1  0
  1 30  1  0
  2  3  1  0
  2  6  2  0
  3  4  1  0
  4  5  2  0
  4 31  1  0
  5  6  1  0
  5 32  1  0
  6  7  1  0
  7  8  1  0
  7 26  2  0
  8  9  2  0
  9 10  1  0
 10 11  2  0
 10 26  1  0
 11 12  1  0
 12 13  1  0
 12 33  1  0
 12 34  1  0
 13 14  2  0
 13 15  1  0
 15 16  1  0
 15 17  1  0
 16 35  1  0
 16 36  1  0
 16 37  1  0
 17 18  2  0
 17 25  1  0
 18 19  1  0
 18 38  1  0
 19 20  2  0
 19 39  1  0
 20 21  1  0
 20 24  1  0
 21 22  1  0
 21 23  1  0
 24 25  2  0
 24 40  1  0
 25 41  1  0
 26 27  1  0
 27 42  1  0
 27 43  1  0
 27 44  1  0
M  CHG  4  11   1  22  -1  23  -1  26   1
M  END

