
     RDKit          3D

 47 49  0  0  0  0  0  0  0  0999 V2000
    3.3430   -0.7745    3.7324 C   0  0  0  0  0  0  0  0  0  0  0  0
    2.2396    0.2041    4.1471 C   0  0  2  0  0  0  0  0  0  0  0  0
    0.8774   -0.1256    3.4937 C   0  0  0  0  0  0  0  0  0  0  0  0
    0.8446   -0.3306    1.6838 S   0  0  1  0  0  0  0  0  0  0  0  0
    1.3242    0.9214    1.0772 O   0  0  0  0  0  0  0  0  0  0  0  0
    1.4755   -1.6133    1.3492 O   0  0  0  0  0  0  0  0  0  0  0  0
   -0.8103   -0.4727    1.3782 N   0  0  0  0  0  0  0  0  0  0  0  0
   -1.5087    0.6879    0.8043 C   0  0  0  0  0  0  0  0  0  0  0  0
   -1.5265    0.6420   -0.7280 C   0  0  0  0  0  0  0  0  0  0  0  0
   -2.0664   -0.6898   -1.2506 C   0  0  2  0  0  0  0  0  0  0  0  0
   -3.4738   -0.7166   -0.9112 O   0  0  0  0  0  0  0  0  0  0  0  0
   -4.3223   -1.4703   -1.6353 C   0  0  0  0  0  0  0  0  0  0  0  0
   -5.6861   -1.4293   -1.2731 C   0  0  0  0  0  0  0  0  0  0  0  0
   -6.5830   -2.1881   -2.0096 C   0  0  0  0  0  0  0  0  0  0  0  0
   -6.0977   -2.9591   -3.0773 C   0  0  0  0  0  0  0  0  0  0  0  0
   -7.1789   -3.9344   -4.0386 Cl  0  0  0  0  0  0  0  0  0  0  0  0
   -4.7324   -2.9336   -3.3556 C   0  0  0  0  0  0  0  0  0  0  0  0
   -3.8684   -2.2034   -2.6428 N   0  0  0  0  0  0  0  0  0  0  0  0
   -1.3398   -1.8771   -0.6077 C   0  0  0  0  0  0  0  0  0  0  0  0
   -1.3243   -1.7741    0.9204 C   0  0  0  0  0  0  0  0  0  0  0  0
    2.6531    1.7021    3.8839 C   0  0  0  0  0  0  0  0  0  0  0  0
    2.1764    2.4696    5.0288 N   0  0  0  0  0  0  0  0  0  0  0  0
    2.3385    1.5259    6.1268 C   0  0  0  0  0  0  0  0  0  0  0  0
    2.0386    0.1745    5.6212 N   0  0  0  0  0  0  0  0  0  0  0  0
    4.2390   -0.5806    4.3408 H   0  0  0  0  0  0  0  0  0  0  0  0
    3.6059   -0.6689    2.6690 H   0  0  0  0  0  0  0  0  0  0  0  0
    3.0364   -1.8173    3.9031 H   0  0  0  0  0  0  0  0  0  0  0  0
    0.4779   -1.0781    3.8757 H   0  0  0  0  0  0  0  0  0  0  0  0
    0.1449    0.6695    3.7023 H   0  0  0  0  0  0  0  0  0  0  0  0
   -1.0252    1.6086    1.1542 H   0  0  0  0  0  0  0  0  0  0  0  0
   -2.5398    0.6763    1.1951 H   0  0  0  0  0  0  0  0  0  0  0  0
   -0.4975    0.7764   -1.0978 H   0  0  0  0  0  0  0  0  0  0  0  0
   -2.1364    1.4692   -1.1254 H   0  0  0  0  0  0  0  0  0  0  0  0
   -1.9777   -0.7485   -2.3446 H   0  0  0  0  0  0  0  0  0  0  0  0
   -6.0063   -0.8074   -0.4359 H   0  0  0  0  0  0  0  0  0  0  0  0
   -7.6484   -2.1901   -1.7713 H   0  0  0  0  0  0  0  0  0  0  0  0
   -4.3278   -3.5274   -4.1817 H   0  0  0  0  0  0  0  0  0  0  0  0
   -0.3000   -1.8926   -0.9740 H   0  0  0  0  0  0  0  0  0  0  0  0
   -1.8113   -2.8182   -0.9297 H   0  0  0  0  0  0  0  0  0  0  0  0
   -0.7097   -2.5722    1.3543 H   0  0  0  0  0  0  0  0  0  0  0  0
   -2.3467   -1.8775    1.3213 H   0  0  0  0  0  0  0  0  0  0  0  0
    2.2679    2.0850    2.9307 H   0  0  0  0  0  0  0  0  0  0  0  0
    3.7544    1.7598    3.8466 H   0  0  0  0  0  0  0  0  0  0  0  0
    1.1873    2.6930    4.9082 H   0  0  0  0  0  0  0  0  0  0  0  0
    1.7084    1.7810    6.9926 H   0  0  0  0  0  0  0  0  0  0  0  0
    3.3917    1.5641    6.4593 H   0  0  0  0  0  0  0  0  0  0  0  0
    1.0841   -0.0880    5.8560 H   0  0  0  0  0  0  0  0  0  0  0  0
  2  1  1  1
  1 25  1  0
  1 26  1  0
  1 27  1  0
  2  3  1  0
  2 21  1  0
  2 24  1  0
  4  3  1  1
  3 28  1  0
  3 29  1  0
  4  5  2  0
  4  6  2  0
  4  7  1  0
  7  8  1  0
  7 20  1  0
  8  9  1  0
  8 30  1  0
  8 31  1  0
  9 10  1  0
  9 32  1  0
  9 33  1  0
 10 11  1  0
 10 19  1  0
 10 34  1  6
 11 12  1  0
 12 13  2  0
 12 18  1  0
 13 14  1  0
 13 35  1  0
 14 15  2  0
 14 36  1  0
 15 16  1  0
 15 17  1  0
 17 18  2  0
 17 37  1  0
 19 20  1  0
 19 38  1  0
 19 39  1  0
 20 40  1  0
 20 41  1  0
 21 22  1  0
 21 42  1  0
 21 43  1  0
 22 23  1  0
 22 44  1  0
 23 24  1  0
 23 45  1  0
 23 46  1  0
 24 47  1  0
M  END

