
     RDKit          3D

 56 58  0  0  0  0  0  0  0  0999 V2000
    2.1591    0.6624   -1.5204 C   0  0  0  0  0  0  0  0  0  0  0  0
    3.0010    0.2775   -0.4583 O   0  0  0  0  0  0  0  0  0  0  0  0
    3.3735    1.2015    0.4717 C   0  0  0  0  0  0  0  0  0  0  0  0
    3.0084    2.5496    0.4087 C   0  0  0  0  0  0  0  0  0  0  0  0
    3.3875    3.4424    1.4209 C   0  0  0  0  0  0  0  0  0  0  0  0
    4.1405    2.9856    2.4972 C   0  0  0  0  0  0  0  0  0  0  0  0
    4.5270    1.6406    2.5550 C   0  0  0  0  0  0  0  0  0  0  0  0
    4.1637    0.7207    1.5589 C   0  0  0  0  0  0  0  0  0  0  0  0
    4.4988   -0.6468    1.6317 N   0  0  0  0  0  0  0  0  0  0  0  0
    4.8520   -1.2015    2.9300 C   0  0  0  0  0  0  0  0  0  0  0  0
    4.7358   -2.7346    2.8967 C   0  0  0  0  0  0  0  0  0  0  0  0
    5.5113   -3.3587    1.8288 N   0  0  0  0  0  0  0  0  0  0  0  0
    6.9279   -3.5579    2.1155 C   0  0  0  0  0  0  0  0  0  0  0  0
    7.1936   -4.8163    2.9553 C   0  0  0  0  0  0  0  0  0  0  0  0
    6.7754   -6.0999    2.2424 C   0  0  0  0  0  0  0  0  0  0  0  0
    6.9956   -7.2628    3.1135 N   0  0  0  0  0  0  0  0  0  0  0  0
    6.6837   -8.8063    2.5149 S   0  0  1  0  0  0  0  0  0  0  0  0
    6.2171   -9.5752    3.6649 O   0  0  0  0  0  0  0  0  0  0  0  0
    5.9370   -8.6888    1.2626 O   0  0  0  0  0  0  0  0  0  0  0  0
    8.3584   -9.3795    2.0590 C   0  0  0  0  0  0  0  0  0  0  0  0
    9.4723   -8.7420    2.6131 C   0  0  0  0  0  0  0  0  0  0  0  0
   10.7686   -9.1285    2.2586 C   0  0  0  0  0  0  0  0  0  0  0  0
   10.9677  -10.1460    1.3243 C   0  0  0  0  0  0  0  0  0  0  0  0
    9.8659  -10.7871    0.7563 C   0  0  0  0  0  0  0  0  0  0  0  0
    8.5768  -10.4183    1.1388 C   0  0  0  0  0  0  0  0  0  0  0  0
    7.4701  -11.2168    0.5645 N   0  0  0  0  0  0  0  0  0  0  0  0
    6.5255  -11.4519    1.2921 O   0  0  0  0  0  0  0  0  0  0  0  0
    7.6127  -11.6185   -0.5776 O   0  0  0  0  0  0  0  0  0  0  0  0
    5.1838   -2.7405    0.5471 C   0  0  0  0  0  0  0  0  0  0  0  0
    5.3086   -1.2135    0.5494 C   0  0  0  0  0  0  0  0  0  0  0  0
    1.9688   -0.2431   -2.1124 H   0  0  0  0  0  0  0  0  0  0  0  0
    2.6318    1.4210   -2.1705 H   0  0  0  0  0  0  0  0  0  0  0  0
    1.1950    1.0606   -1.1560 H   0  0  0  0  0  0  0  0  0  0  0  0
    2.4044    2.9132   -0.4226 H   0  0  0  0  0  0  0  0  0  0  0  0
    3.0827    4.4897    1.3574 H   0  0  0  0  0  0  0  0  0  0  0  0
    4.4417    3.6696    3.2943 H   0  0  0  0  0  0  0  0  0  0  0  0
    5.1336    1.3018    3.3956 H   0  0  0  0  0  0  0  0  0  0  0  0
    4.1624   -0.8059    3.6915 H   0  0  0  0  0  0  0  0  0  0  0  0
    5.8810   -0.9097    3.2420 H   0  0  0  0  0  0  0  0  0  0  0  0
    3.6725   -2.9956    2.7531 H   0  0  0  0  0  0  0  0  0  0  0  0
    5.0419   -3.1482    3.8707 H   0  0  0  0  0  0  0  0  0  0  0  0
    7.4000   -2.6910    2.6246 H   0  0  0  0  0  0  0  0  0  0  0  0
    7.4563   -3.6620    1.1530 H   0  0  0  0  0  0  0  0  0  0  0  0
    6.6542   -4.7391    3.9170 H   0  0  0  0  0  0  0  0  0  0  0  0
    8.2666   -4.8595    3.2097 H   0  0  0  0  0  0  0  0  0  0  0  0
    7.3812   -6.2386    1.3324 H   0  0  0  0  0  0  0  0  0  0  0  0
    5.7260   -6.0196    1.9174 H   0  0  0  0  0  0  0  0  0  0  0  0
    6.5559   -7.2069    4.0325 H   0  0  0  0  0  0  0  0  0  0  0  0
    9.3056   -7.9245    3.3146 H   0  0  0  0  0  0  0  0  0  0  0  0
   11.6236   -8.6206    2.7108 H   0  0  0  0  0  0  0  0  0  0  0  0
   11.9777  -10.4447    1.0352 H   0  0  0  0  0  0  0  0  0  0  0  0
    9.9815  -11.5820    0.0193 H   0  0  0  0  0  0  0  0  0  0  0  0
    4.1376   -2.9937    0.2997 H   0  0  0  0  0  0  0  0  0  0  0  0
    5.8226   -3.1718   -0.2399 H   0  0  0  0  0  0  0  0  0  0  0  0
    4.9594   -0.8160   -0.4105 H   0  0  0  0  0  0  0  0  0  0  0  0
    6.3755   -0.9176    0.6688 H   0  0  0  0  0  0  0  0  0  0  0  0
  1  2  1  0
  1 31  1  0
  1 32  1  0
  1 33  1  0
  2  3  1  0
  3  4  2  0
  3  8  1  0
  4  5  1  0
  4 34  1  0
  5  6  2  0
  5 35  1  0
  6  7  1  0
  6 36  1  0
  7  8  2  0
  7 37  1  0
  8  9  1  0
  9 10  1  0
  9 30  1  0
 10 11  1  0
 10 38  1  0
 10 39  1  0
 11 12  1  0
 11 40  1  0
 11 41  1  0
 12 13  1  0
 12 29  1  0
 13 14  1  0
 13 42  1  0
 13 43  1  0
 14 15  1  0
 14 44  1  0
 14 45  1  0
 15 16  1  0
 15 46  1  0
 15 47  1  0
 17 16  1  1
 16 48  1  0
 17 18  2  0
 17 19  2  0
 17 20  1  0
 20 21  2  0
 20 25  1  0
 21 22  1  0
 21 49  1  0
 22 23  2  0
 22 50  1  0
 23 24  1  0
 23 51  1  0
 24 25  2  0
 24 52  1  0
 25 26  1  0
 26 27  2  0
 26 28  1  0
 29 30  1  0
 29 53  1  0
 29 54  1  0
 30 55  1  0
 30 56  1  0
M  CHG  2  26   1  28  -1
M  END

