
     RDKit          3D

 31 30  0  0  0  0  0  0  0  0999 V2000
    1.6765   -2.1420   -2.4952 C   0  0  0  0  0  0  0  0  0  0  0  0
    2.7384   -1.8174   -2.0108 C   0  0  0  0  0  0  0  0  0  0  0  0
    4.0212   -1.4398   -1.4171 C   0  0  0  0  0  0  0  0  0  0  0  0
    4.5447   -2.4555   -0.3850 C   0  0  0  0  0  0  0  0  0  0  0  0
    5.8921   -2.0439    0.2066 C   0  0  0  0  0  0  0  0  0  0  0  0
    6.3780   -2.9776    1.3123 C   0  0  0  0  0  0  0  0  0  0  0  0
    5.6192   -3.7105    1.9042 O   0  0  0  0  0  0  0  0  0  0  0  0
    7.8859   -2.9537    1.6405 C   0  0  1  0  0  0  0  0  0  0  0  0
    8.3350   -1.5684    2.1328 C   0  0  0  0  0  0  0  0  0  0  0  0
    9.8390   -1.4785    2.4071 C   0  0  0  0  0  0  0  0  0  0  0  0
   10.2691   -0.1123    2.9418 C   0  0  0  0  0  0  0  0  0  0  0  0
    8.2317   -3.8895    2.6221 O   0  0  0  0  0  0  0  0  0  0  0  0
    8.2314   -5.2415    2.2234 C   0  0  0  0  0  0  0  0  0  0  0  0
    0.7350   -2.4275   -2.9247 H   0  0  0  0  0  0  0  0  0  0  0  0
    3.9184   -0.4472   -0.9413 H   0  0  0  0  0  0  0  0  0  0  0  0
    4.7647   -1.3092   -2.2247 H   0  0  0  0  0  0  0  0  0  0  0  0
    4.6325   -3.4470   -0.8586 H   0  0  0  0  0  0  0  0  0  0  0  0
    3.8136   -2.5754    0.4283 H   0  0  0  0  0  0  0  0  0  0  0  0
    5.8168   -1.0326    0.6498 H   0  0  0  0  0  0  0  0  0  0  0  0
    6.6691   -1.9607   -0.5743 H   0  0  0  0  0  0  0  0  0  0  0  0
    8.4188   -3.1783    0.6869 H   0  0  0  0  0  0  0  0  0  0  0  0
    7.7728   -1.3402    3.0556 H   0  0  0  0  0  0  0  0  0  0  0  0
    8.0489   -0.8069    1.3882 H   0  0  0  0  0  0  0  0  0  0  0  0
   10.3898   -1.7043    1.4755 H   0  0  0  0  0  0  0  0  0  0  0  0
   10.1107   -2.2695    3.1232 H   0  0  0  0  0  0  0  0  0  0  0  0
   10.0300    0.6967    2.2305 H   0  0  0  0  0  0  0  0  0  0  0  0
   11.3540   -0.0785    3.1295 H   0  0  0  0  0  0  0  0  0  0  0  0
    9.7610    0.1240    3.8917 H   0  0  0  0  0  0  0  0  0  0  0  0
    8.6282   -5.8271    3.0654 H   0  0  0  0  0  0  0  0  0  0  0  0
    8.8883   -5.4045    1.3446 H   0  0  0  0  0  0  0  0  0  0  0  0
    7.2184   -5.6064    1.9857 H   0  0  0  0  0  0  0  0  0  0  0  0
  1  2  3  0
  1 14  1  0
  2  3  1  0
  3  4  1  0
  3 15  1  0
  3 16  1  0
  4  5  1  0
  4 17  1  0
  4 18  1  0
  5  6  1  0
  5 19  1  0
  5 20  1  0
  6  7  2  0
  6  8  1  0
  8  9  1  0
  8 12  1  0
  8 21  1  6
  9 10  1  0
  9 22  1  0
  9 23  1  0
 10 11  1  0
 10 24  1  0
 10 25  1  0
 11 26  1  0
 11 27  1  0
 11 28  1  0
 12 13  1  0
 13 29  1  0
 13 30  1  0
 13 31  1  0
M  END

