
     RDKit          3D

 37 38  0  0  0  0  0  0  0  0999 V2000
    0.6779   -1.0948    2.6980 N   0  0  0  0  0  0  0  0  0  0  0  0
    2.1345   -1.0558    2.6309 C   0  0  0  0  0  0  0  0  0  0  0  0
    2.5905   -0.5866    1.2454 C   0  0  0  0  0  0  0  0  0  0  0  0
    4.0423   -0.5108    1.1332 N   0  0  0  0  0  0  0  0  0  0  0  0
    4.7138   -1.7573    0.7839 C   0  0  0  0  0  0  0  0  0  0  0  0
    4.7168   -2.0464   -0.7273 C   0  0  0  0  0  0  0  0  0  0  0  0
    5.2675   -0.9016   -1.4597 N   0  0  0  0  0  0  0  0  0  0  0  0
    6.3179   -1.1123   -2.2946 C   0  0  0  0  0  0  0  0  0  0  0  0
    6.8169   -2.2244   -2.4678 O   0  0  0  0  0  0  0  0  0  0  0  0
    6.9430    0.0797   -3.0848 C   0  0  0  0  0  0  0  0  0  0  0  0
    6.5762    1.2455   -3.0505 O   0  0  0  0  0  0  0  0  0  0  0  0
    7.9730   -0.3673   -3.8394 N   0  0  0  0  0  0  0  0  0  0  0  0
    8.7146    0.4830   -4.7173 C   0  0  1  0  0  0  0  0  0  0  0  0
    9.9124    1.2425   -4.1999 C   0  0  0  0  0  0  0  0  0  0  0  0
   10.0996    0.0581   -5.1154 C   0  0  0  0  0  0  0  0  0  0  0  0
    4.5842    0.3634   -1.1600 C   0  0  0  0  0  0  0  0  0  0  0  0
    4.5839    0.5987    0.3600 C   0  0  0  0  0  0  0  0  0  0  0  0
    0.3670   -1.2753    3.6518 H   0  0  0  0  0  0  0  0  0  0  0  0
    0.3139   -1.8636    2.1330 H   0  0  0  0  0  0  0  0  0  0  0  0
    2.6313   -2.0214    2.8717 H   0  0  0  0  0  0  0  0  0  0  0  0
    2.5065   -0.3306    3.3730 H   0  0  0  0  0  0  0  0  0  0  0  0
    2.1608    0.4127    1.0753 H   0  0  0  0  0  0  0  0  0  0  0  0
    2.1284   -1.2444    0.4747 H   0  0  0  0  0  0  0  0  0  0  0  0
    4.2413   -2.5964    1.3178 H   0  0  0  0  0  0  0  0  0  0  0  0
    5.7619   -1.7071    1.1312 H   0  0  0  0  0  0  0  0  0  0  0  0
    3.6856   -2.2274   -1.0836 H   0  0  0  0  0  0  0  0  0  0  0  0
    5.3204   -2.9297   -0.9672 H   0  0  0  0  0  0  0  0  0  0  0  0
    8.1276   -1.3731   -3.8085 H   0  0  0  0  0  0  0  0  0  0  0  0
    8.1000    0.9957   -5.4664 H   0  0  0  0  0  0  0  0  0  0  0  0
   10.1638    1.1135   -3.1440 H   0  0  0  0  0  0  0  0  0  0  0  0
   10.0865    2.2476   -4.5931 H   0  0  0  0  0  0  0  0  0  0  0  0
   10.4894   -0.8657   -4.6765 H   0  0  0  0  0  0  0  0  0  0  0  0
   10.4116    0.2288   -6.1491 H   0  0  0  0  0  0  0  0  0  0  0  0
    3.5434    0.2883   -1.5279 H   0  0  0  0  0  0  0  0  0  0  0  0
    5.0797    1.1796   -1.6921 H   0  0  0  0  0  0  0  0  0  0  0  0
    4.0198    1.5159    0.5899 H   0  0  0  0  0  0  0  0  0  0  0  0
    5.6288    0.7718    0.6784 H   0  0  0  0  0  0  0  0  0  0  0  0
  1  2  1  0
  1 18  1  0
  1 19  1  0
  2  3  1  0
  2 20  1  0
  2 21  1  0
  3  4  1  0
  3 22  1  0
  3 23  1  0
  4  5  1  0
  4 17  1  0
  5  6  1  0
  5 24  1  0
  5 25  1  0
  6  7  1  0
  6 26  1  0
  6 27  1  0
  7  8  1  0
  7 16  1  0
  8  9  2  0
  8 10  1  0
 10 11  2  0
 10 12  1  0
 12 13  1  0
 12 28  1  0
 13 14  1  0
 13 15  1  0
 13 29  1  6
 14 15  1  0
 14 30  1  0
 14 31  1  0
 15 32  1  0
 15 33  1  0
 16 17  1  0
 16 34  1  0
 16 35  1  0
 17 36  1  0
 17 37  1  0
M  END

