
     RDKit          3D

 30 30  0  0  0  0  0  0  0  0999 V2000
    3.0265    1.4736   -0.5889 C   0  0  0  0  0  0  0  0  0  0  0  0
    2.3226    0.2592   -0.4440 O   0  0  0  0  0  0  0  0  0  0  0  0
    2.9185   -0.8994   -0.8151 C   0  0  0  0  0  0  0  0  0  0  0  0
    4.2230   -1.0066   -1.3142 C   0  0  0  0  0  0  0  0  0  0  0  0
    4.7332   -2.2527   -1.6755 C   0  0  0  0  0  0  0  0  0  0  0  0
    3.9907   -3.4388   -1.5509 C   0  0  0  0  0  0  0  0  0  0  0  0
    4.5367   -4.7512   -1.9296 C   0  0  0  0  0  0  0  0  0  0  0  0
    5.8335   -5.0636   -2.1033 C   0  0  0  0  0  0  0  0  0  0  0  0
    6.3276   -6.4242   -2.5147 C   0  0  0  0  0  0  0  0  0  0  0  0
    7.1437   -7.0744   -1.3985 C   0  0  0  0  0  0  0  0  0  0  0  0
    7.8824   -8.8227   -1.9379 Br  0  0  0  0  0  0  0  0  0  0  0  0
    2.6747   -3.3054   -1.0440 C   0  0  0  0  0  0  0  0  0  0  0  0
    1.6515   -4.7096   -0.8284 Cl  0  0  0  0  0  0  0  0  0  0  0  0
    2.1257   -2.0655   -0.6875 C   0  0  0  0  0  0  0  0  0  0  0  0
    0.8362   -1.9770   -0.2706 O   0  0  0  0  0  0  0  0  0  0  0  0
    0.6269   -1.7832    1.1220 C   0  0  0  0  0  0  0  0  0  0  0  0
    2.3498    2.2684   -0.2484 H   0  0  0  0  0  0  0  0  0  0  0  0
    3.3007    1.6633   -1.6419 H   0  0  0  0  0  0  0  0  0  0  0  0
    3.9430    1.4943    0.0280 H   0  0  0  0  0  0  0  0  0  0  0  0
    4.8442   -0.1201   -1.4394 H   0  0  0  0  0  0  0  0  0  0  0  0
    5.7414   -2.3019   -2.0911 H   0  0  0  0  0  0  0  0  0  0  0  0
    3.7938   -5.5410   -2.0749 H   0  0  0  0  0  0  0  0  0  0  0  0
    6.6075   -4.3075   -1.9215 H   0  0  0  0  0  0  0  0  0  0  0  0
    6.9645   -6.3407   -3.4133 H   0  0  0  0  0  0  0  0  0  0  0  0
    5.4811   -7.0765   -2.7807 H   0  0  0  0  0  0  0  0  0  0  0  0
    6.5332   -7.2681   -0.5074 H   0  0  0  0  0  0  0  0  0  0  0  0
    8.0107   -6.4647   -1.1107 H   0  0  0  0  0  0  0  0  0  0  0  0
   -0.4607   -1.7508    1.2750 H   0  0  0  0  0  0  0  0  0  0  0  0
    1.0687   -0.8349    1.4692 H   0  0  0  0  0  0  0  0  0  0  0  0
    1.0454   -2.6213    1.7069 H   0  0  0  0  0  0  0  0  0  0  0  0
  1  2  1  0
  1 17  1  0
  1 18  1  0
  1 19  1  0
  2  3  1  0
  3  4  2  0
  3 14  1  0
  4  5  1  0
  4 20  1  0
  5  6  2  0
  5 21  1  0
  6  7  1  0
  6 12  1  0
  7  8  2  0
  7 22  1  0
  8  9  1  0
  8 23  1  0
  9 10  1  0
  9 24  1  0
  9 25  1  0
 10 11  1  0
 10 26  1  0
 10 27  1  0
 12 13  1  0
 12 14  2  0
 14 15  1  0
 15 16  1  0
 16 28  1  0
 16 29  1  0
 16 30  1  0
M  END

