
     RDKit          3D

 40 41  0  0  0  0  0  0  0  0999 V2000
    1.7697   -0.2051    1.5155 C   0  0  0  0  0  0  0  0  0  0  0  0
    3.0789   -0.5374    0.8606 C   0  0  0  0  0  0  0  0  0  0  0  0
    4.0468    0.4367    0.8062 N   0  0  0  0  0  0  0  0  0  0  0  0
    5.1526    0.0091    0.2645 C   0  0  0  0  0  0  0  0  0  0  0  0
    6.3917    0.8501    0.1014 C   0  0  0  0  0  0  0  0  0  0  0  0
    7.3418    0.7783    1.2896 C   0  0  0  0  0  0  0  0  0  0  0  0
    8.6639    0.3433    1.1265 C   0  0  0  0  0  0  0  0  0  0  0  0
    9.5384    0.2893    2.2173 C   0  0  0  0  0  0  0  0  0  0  0  0
    9.0980    0.6687    3.4872 C   0  0  0  0  0  0  0  0  0  0  0  0
    7.7785    1.1017    3.6602 C   0  0  0  0  0  0  0  0  0  0  0  0
    6.9071    1.1553    2.5706 C   0  0  0  0  0  0  0  0  0  0  0  0
    5.1085   -1.6693   -0.2149 S   0  0  0  0  0  0  0  0  0  0  0  0
    3.4530   -1.7556    0.3231 C   0  0  0  0  0  0  0  0  0  0  0  0
    2.7725   -3.0881    0.3035 C   0  0  0  0  0  0  0  0  0  0  0  0
    3.3549   -4.0844    0.7119 O   0  0  0  0  0  0  0  0  0  0  0  0
    1.4792   -3.1622   -0.1663 N   0  0  0  0  0  0  0  0  0  0  0  0
    0.8119   -2.1472   -0.9661 C   0  0  0  0  0  0  0  0  0  0  0  0
    0.8341   -4.4715   -0.0767 C   0  0  0  0  0  0  0  0  0  0  0  0
    0.3543   -4.7954    1.3434 C   0  0  0  0  0  0  0  0  0  0  0  0
   -0.4112   -6.0959    1.4193 C   0  0  1  0  0  0  0  0  0  0  0  0
   -1.5159   -6.0674    0.6425 F   0  0  0  0  0  0  0  0  0  0  0  0
    0.3301   -7.1410    1.0098 F   0  0  0  0  0  0  0  0  0  0  0  0
   -0.8150   -6.3540    2.6741 F   0  0  0  0  0  0  0  0  0  0  0  0
    1.9565    0.2922    2.4795 H   0  0  0  0  0  0  0  0  0  0  0  0
    1.1582   -1.0989    1.6930 H   0  0  0  0  0  0  0  0  0  0  0  0
    1.1881    0.5012    0.8991 H   0  0  0  0  0  0  0  0  0  0  0  0
    6.0481    1.8878   -0.0374 H   0  0  0  0  0  0  0  0  0  0  0  0
    6.9257    0.5554   -0.8144 H   0  0  0  0  0  0  0  0  0  0  0  0
    9.0167    0.0447    0.1350 H   0  0  0  0  0  0  0  0  0  0  0  0
   10.5666   -0.0522    2.0718 H   0  0  0  0  0  0  0  0  0  0  0  0
    9.7792    0.6264    4.3409 H   0  0  0  0  0  0  0  0  0  0  0  0
    7.4260    1.3993    4.6513 H   0  0  0  0  0  0  0  0  0  0  0  0
    5.8740    1.4854    2.7078 H   0  0  0  0  0  0  0  0  0  0  0  0
    1.4720   -1.2860   -1.1159 H   0  0  0  0  0  0  0  0  0  0  0  0
   -0.1182   -1.7947   -0.4884 H   0  0  0  0  0  0  0  0  0  0  0  0
    0.5513   -2.5529   -1.9591 H   0  0  0  0  0  0  0  0  0  0  0  0
    1.5438   -5.2481   -0.3985 H   0  0  0  0  0  0  0  0  0  0  0  0
   -0.0213   -4.4770   -0.7668 H   0  0  0  0  0  0  0  0  0  0  0  0
   -0.3103   -4.0037    1.7228 H   0  0  0  0  0  0  0  0  0  0  0  0
    1.2190   -4.8746    2.0178 H   0  0  0  0  0  0  0  0  0  0  0  0
  1  2  1  0
  1 24  1  0
  1 25  1  0
  1 26  1  0
  2  3  2  0
  2 13  1  0
  3  4  1  0
  4  5  1  0
  4 12  2  0
  5  6  1  0
  5 27  1  0
  5 28  1  0
  6  7  2  0
  6 11  1  0
  7  8  1  0
  7 29  1  0
  8  9  2  0
  8 30  1  0
  9 10  1  0
  9 31  1  0
 10 11  2  0
 10 32  1  0
 11 33  1  0
 12 13  1  0
 13 14  2  0
 14 15  1  0
 14 16  1  0
 16 17  1  0
 16 18  1  0
 17 34  1  0
 17 35  1  0
 17 36  1  0
 18 19  1  0
 18 37  1  0
 18 38  1  0
 19 20  1  0
 19 39  1  0
 19 40  1  0
 20 21  1  6
 20 22  1  0
 20 23  1  0
M  CHG  2  12   1  15  -1
M  END

