
     RDKit          3D

 48 51  0  0  0  0  0  0  0  0999 V2000
    0.7020   -0.4295    1.1720 C   0  0  0  0  0  0  0  0  0  0  0  0
    2.1020   -0.3881    0.6115 C   0  0  0  0  0  0  0  0  0  0  0  0
    2.3656    0.1810   -0.6436 C   0  0  0  0  0  0  0  0  0  0  0  0
    3.6541    0.1896   -1.1808 C   0  0  0  0  0  0  0  0  0  0  0  0
    4.7134   -0.3588   -0.4500 C   0  0  0  0  0  0  0  0  0  0  0  0
    6.0389   -0.3473   -0.9882 N   0  0  0  0  0  0  0  0  0  0  0  0
    6.7779    0.7504   -1.4135 C   0  0  0  0  0  0  0  0  0  0  0  0
    6.1279    2.3827   -1.2796 S   0  0  0  0  0  0  0  0  0  0  0  0
    7.6304    3.3495   -1.7009 C   0  0  0  0  0  0  0  0  0  0  0  0
    7.8206    3.5722   -3.2071 C   0  0  0  0  0  0  0  0  0  0  0  0
    7.3075    4.5297   -3.7572 O   0  0  0  0  0  0  0  0  0  0  0  0
    8.6106    2.6296   -3.8091 N   0  0  0  0  0  0  0  0  0  0  0  0
    8.9850    2.5615   -5.1705 C   0  0  0  0  0  0  0  0  0  0  0  0
    8.2308    3.1944   -6.1714 C   0  0  0  0  0  0  0  0  0  0  0  0
    8.6144    3.0763   -7.5066 C   0  0  0  0  0  0  0  0  0  0  0  0
    9.7377    2.3311   -7.8588 C   0  0  0  0  0  0  0  0  0  0  0  0
   10.4884    1.7201   -6.8501 C   0  0  0  0  0  0  0  0  0  0  0  0
   11.9040    0.8023   -7.3533 Cl  0  0  0  0  0  0  0  0  0  0  0  0
   10.1580    1.8256   -5.4881 C   0  0  0  0  0  0  0  0  0  0  0  0
   11.0061    1.2264   -4.3953 C   0  0  0  0  0  0  0  0  0  0  0  0
    7.9684    0.4206   -1.8632 N   0  0  0  0  0  0  0  0  0  0  0  0
    8.0397   -0.9447   -1.7326 C   0  0  0  0  0  0  0  0  0  0  0  0
    9.1038   -1.8600   -2.0871 C   0  0  0  0  0  0  0  0  0  0  0  0
   10.1901   -1.6451   -2.5894 O   0  0  0  0  0  0  0  0  0  0  0  0
    8.7046   -3.1902   -1.7625 N   0  0  0  0  0  0  0  0  0  0  0  0
    9.3987   -3.9010   -1.9828 H   0  0  0  0  0  0  0  0  0  0  0  0
    7.5092   -3.5646   -1.2203 C   0  0  0  0  0  0  0  0  0  0  0  0
    6.5528   -2.7384   -0.9161 N   0  0  0  0  0  0  0  0  0  0  0  0
    6.8581   -1.4470   -1.1887 C   0  0  0  0  0  0  0  0  0  0  0  0
    4.4744   -0.9302    0.8052 C   0  0  0  0  0  0  0  0  0  0  0  0
    3.1796   -0.9441    1.3215 C   0  0  0  0  0  0  0  0  0  0  0  0
    0.0667    0.3546    0.7339 H   0  0  0  0  0  0  0  0  0  0  0  0
    0.7008   -0.3012    2.2654 H   0  0  0  0  0  0  0  0  0  0  0  0
    0.2209   -1.4001    0.9585 H   0  0  0  0  0  0  0  0  0  0  0  0
    1.5472    0.6207   -1.2199 H   0  0  0  0  0  0  0  0  0  0  0  0
    3.8363    0.6225   -2.1663 H   0  0  0  0  0  0  0  0  0  0  0  0
    8.4929    2.8731   -1.2156 H   0  0  0  0  0  0  0  0  0  0  0  0
    7.4437    4.3347   -1.2544 H   0  0  0  0  0  0  0  0  0  0  0  0
    8.8558    1.8312   -3.2196 H   0  0  0  0  0  0  0  0  0  0  0  0
    7.3606    3.7815   -5.8884 H   0  0  0  0  0  0  0  0  0  0  0  0
    8.0242    3.5681   -8.2839 H   0  0  0  0  0  0  0  0  0  0  0  0
   10.0445    2.2214   -8.8996 H   0  0  0  0  0  0  0  0  0  0  0  0
   11.9865    0.9249   -4.7815 H   0  0  0  0  0  0  0  0  0  0  0  0
   10.5512    0.3318   -3.9366 H   0  0  0  0  0  0  0  0  0  0  0  0
   11.1662    1.9580   -3.5868 H   0  0  0  0  0  0  0  0  0  0  0  0
    7.3792   -4.6380   -1.0441 H   0  0  0  0  0  0  0  0  0  0  0  0
    5.3012   -1.3624    1.3704 H   0  0  0  0  0  0  0  0  0  0  0  0
    3.0038   -1.3914    2.3037 H   0  0  0  0  0  0  0  0  0  0  0  0
  1  2  1  0
  1 32  1  0
  1 33  1  0
  1 34  1  0
  2  3  2  0
  2 31  1  0
  3  4  1  0
  3 35  1  0
  4  5  2  0
  4 36  1  0
  5  6  1  0
  5 30  1  0
  6  7  1  0
  6 29  1  0
  7  8  1  0
  7 21  2  0
  8  9  1  0
  9 10  1  0
  9 37  1  0
  9 38  1  0
 10 11  2  0
 10 12  1  0
 12 13  1  0
 12 39  1  0
 13 14  2  0
 13 19  1  0
 14 15  1  0
 14 40  1  0
 15 16  2  0
 15 41  1  0
 16 17  1  0
 16 42  1  0
 17 18  1  0
 17 19  2  0
 19 20  1  0
 20 43  1  0
 20 44  1  0
 20 45  1  0
 21 22  1  0
 22 23  1  0
 22 29  2  0
 23 24  2  0
 23 25  1  0
 25 26  1  0
 25 27  1  0
 27 28  2  0
 27 46  1  0
 28 29  1  0
 30 31  2  0
 30 47  1  0
 31 48  1  0
M  END

