
     RDKit          3D

 44 45  0  0  0  0  0  0  0  0999 V2000
    1.4298   -0.7822    0.4939 C   0  0  0  0  0  0  0  0  0  0  0  0
    3.1802   -0.8966    0.9777 S   0  0  0  0  0  0  0  0  0  0  0  0
    3.5231    0.8707    1.3212 C   0  0  0  0  0  0  0  0  0  0  0  0
    4.9823    1.0495    1.7431 C   0  0  0  0  0  0  0  0  0  0  0  0
    5.3745    2.5135    2.0596 C   0  0  1  0  0  0  0  0  0  0  0  0
    4.8101    2.9129    3.4277 C   0  0  0  0  0  0  0  0  0  0  0  0
    6.8395    2.6662    1.9551 N   0  0  0  0  0  0  0  0  0  0  0  0
    7.2775    2.6858    0.5673 C   0  0  0  0  0  0  0  0  0  0  0  0
    7.4255    3.7875    2.7016 C   0  0  0  0  0  0  0  0  0  0  0  0
    8.9277    3.7194    2.7710 C   0  0  0  0  0  0  0  0  0  0  0  0
    9.8272    4.7327    2.5689 C   0  0  0  0  0  0  0  0  0  0  0  0
    9.7066    6.1758    2.1722 C   0  0  0  0  0  0  0  0  0  0  0  0
    8.7024    6.3810    1.1343 N   0  0  0  0  0  0  0  0  0  0  0  0
   11.1170    4.3238    2.8245 O   0  0  0  0  0  0  0  0  0  0  0  0
   11.0556    3.0161    3.1959 C   0  0  0  0  0  0  0  0  0  0  0  0
   12.1329    2.2054    3.5464 C   0  0  0  0  0  0  0  0  0  0  0  0
   11.8340    0.8859    3.8931 C   0  0  0  0  0  0  0  0  0  0  0  0
   10.5066    0.4101    3.8808 C   0  0  0  0  0  0  0  0  0  0  0  0
    9.4418    1.2368    3.5233 C   0  0  0  0  0  0  0  0  0  0  0  0
    9.7191    2.5718    3.1778 C   0  0  0  0  0  0  0  0  0  0  0  0
    1.0949   -1.8024    0.2573 H   0  0  0  0  0  0  0  0  0  0  0  0
    1.2973   -0.1520   -0.3998 H   0  0  0  0  0  0  0  0  0  0  0  0
    0.8082   -0.3894    1.3142 H   0  0  0  0  0  0  0  0  0  0  0  0
    2.8298    1.2151    2.1064 H   0  0  0  0  0  0  0  0  0  0  0  0
    3.3126    1.4588    0.4110 H   0  0  0  0  0  0  0  0  0  0  0  0
    5.6214    0.6577    0.9385 H   0  0  0  0  0  0  0  0  0  0  0  0
    5.1959    0.4295    2.6307 H   0  0  0  0  0  0  0  0  0  0  0  0
    4.8839    3.1697    1.3011 H   0  0  0  0  0  0  0  0  0  0  0  0
    5.3097    2.3598    4.2397 H   0  0  0  0  0  0  0  0  0  0  0  0
    3.7384    2.6690    3.4708 H   0  0  0  0  0  0  0  0  0  0  0  0
    4.9013    3.9897    3.6289 H   0  0  0  0  0  0  0  0  0  0  0  0
    6.9216    1.7975    0.0273 H   0  0  0  0  0  0  0  0  0  0  0  0
    8.3756    2.6802    0.5157 H   0  0  0  0  0  0  0  0  0  0  0  0
    6.9144    3.5841    0.0175 H   0  0  0  0  0  0  0  0  0  0  0  0
    7.0547    3.7430    3.7355 H   0  0  0  0  0  0  0  0  0  0  0  0
    7.1337    4.7725    2.2844 H   0  0  0  0  0  0  0  0  0  0  0  0
   10.7294    6.5169    1.9108 H   0  0  0  0  0  0  0  0  0  0  0  0
    9.4073    6.7737    3.0532 H   0  0  0  0  0  0  0  0  0  0  0  0
    8.9943    5.9426    0.2607 H   0  0  0  0  0  0  0  0  0  0  0  0
    8.5836    7.3757    0.9460 H   0  0  0  0  0  0  0  0  0  0  0  0
   13.1544    2.5903    3.5474 H   0  0  0  0  0  0  0  0  0  0  0  0
   12.6447    0.2096    4.1759 H   0  0  0  0  0  0  0  0  0  0  0  0
   10.3123   -0.6305    4.1528 H   0  0  0  0  0  0  0  0  0  0  0  0
    8.4162    0.8665    3.4923 H   0  0  0  0  0  0  0  0  0  0  0  0
  1  2  1  0
  1 21  1  0
  1 22  1  0
  1 23  1  0
  2  3  1  0
  3  4  1  0
  3 24  1  0
  3 25  1  0
  4  5  1  0
  4 26  1  0
  4 27  1  0
  5  6  1  0
  5  7  1  0
  5 28  1  6
  6 29  1  0
  6 30  1  0
  6 31  1  0
  7  8  1  0
  7  9  1  0
  8 32  1  0
  8 33  1  0
  8 34  1  0
  9 10  1  0
  9 35  1  0
  9 36  1  0
 10 11  2  0
 10 20  1  0
 11 12  1  0
 11 14  1  0
 12 13  1  0
 12 37  1  0
 12 38  1  0
 13 39  1  0
 13 40  1  0
 14 15  1  0
 15 16  1  0
 15 20  2  0
 16 17  2  0
 16 41  1  0
 17 18  1  0
 17 42  1  0
 18 19  2  0
 18 43  1  0
 19 20  1  0
 19 44  1  0
M  END

