
     RDKit          3D

 37 38  0  0  0  0  0  0  0  0999 V2000
    2.6296   -0.3981   -3.2308 O   0  0  0  0  0  0  0  0  0  0  0  0
    2.2399   -0.8201   -2.1780 C   0  0  0  0  0  0  0  0  0  0  0  0
    0.9115   -0.9480   -1.9425 O   0  0  0  0  0  0  0  0  0  0  0  0
    3.1434   -1.2210   -1.0172 C   0  0  0  0  0  0  0  0  0  0  0  0
    4.6240   -1.2500   -1.3858 C   0  0  0  0  0  0  0  0  0  0  0  0
    5.5266   -1.5238   -0.1771 C   0  0  0  0  0  0  0  0  0  0  0  0
    6.9373   -1.6049   -0.5068 N   0  0  0  0  0  0  0  0  0  0  0  0
    7.4964   -2.8102   -0.8802 C   0  0  0  0  0  0  0  0  0  0  0  0
    6.8650   -3.8572   -0.8086 O   0  0  0  0  0  0  0  0  0  0  0  0
    8.8137   -2.7672   -1.3192 N   0  0  0  0  0  0  0  0  0  0  0  0
    9.5061   -4.0348   -1.5211 C   0  0  0  0  0  0  0  0  0  0  0  0
   10.3051   -3.9969   -2.8195 C   0  0  0  0  0  0  0  0  0  0  0  0
   11.2255   -2.7980   -2.8503 C   0  0  0  0  0  0  0  0  0  0  0  0
   12.4145   -2.8011   -3.5985 C   0  0  0  0  0  0  0  0  0  0  0  0
   13.2699   -1.7012   -3.6184 C   0  0  0  0  0  0  0  0  0  0  0  0
   12.9243   -0.5807   -2.8643 C   0  0  0  0  0  0  0  0  0  0  0  0
   13.7372    0.4871   -2.8641 F   0  0  0  0  0  0  0  0  0  0  0  0
   11.7596   -0.5441   -2.1092 C   0  0  0  0  0  0  0  0  0  0  0  0
   10.8992   -1.6530   -2.1029 C   0  0  0  0  0  0  0  0  0  0  0  0
    9.6213   -1.5606   -1.2859 C   0  0  0  0  0  0  0  0  0  0  0  0
    0.7567   -1.3129   -1.0596 H   0  0  0  0  0  0  0  0  0  0  0  0
    2.8172   -2.2056   -0.6342 H   0  0  0  0  0  0  0  0  0  0  0  0
    2.9573   -0.5030   -0.1949 H   0  0  0  0  0  0  0  0  0  0  0  0
    4.8942   -0.2913   -1.8582 H   0  0  0  0  0  0  0  0  0  0  0  0
    4.7967   -2.0299   -2.1442 H   0  0  0  0  0  0  0  0  0  0  0  0
    5.2515   -2.4829    0.2851 H   0  0  0  0  0  0  0  0  0  0  0  0
    5.3910   -0.7367    0.5858 H   0  0  0  0  0  0  0  0  0  0  0  0
    7.4243   -0.7395   -0.6926 H   0  0  0  0  0  0  0  0  0  0  0  0
    8.7406   -4.8187   -1.5352 H   0  0  0  0  0  0  0  0  0  0  0  0
   10.1851   -4.2430   -0.6698 H   0  0  0  0  0  0  0  0  0  0  0  0
    9.6028   -3.9592   -3.6720 H   0  0  0  0  0  0  0  0  0  0  0  0
   10.8884   -4.9254   -2.9309 H   0  0  0  0  0  0  0  0  0  0  0  0
   12.6761   -3.6920   -4.1765 H   0  0  0  0  0  0  0  0  0  0  0  0
   14.1957   -1.6987   -4.1967 H   0  0  0  0  0  0  0  0  0  0  0  0
   11.5324    0.3553   -1.5311 H   0  0  0  0  0  0  0  0  0  0  0  0
    9.0396   -0.7199   -1.7047 H   0  0  0  0  0  0  0  0  0  0  0  0
    9.8830   -1.2722   -0.2455 H   0  0  0  0  0  0  0  0  0  0  0  0
  1  2  2  0
  2  3  1  0
  2  4  1  0
  3 21  1  0
  4  5  1  0
  4 22  1  0
  4 23  1  0
  5  6  1  0
  5 24  1  0
  5 25  1  0
  6  7  1  0
  6 26  1  0
  6 27  1  0
  7  8  1  0
  7 28  1  0
  8  9  2  0
  8 10  1  0
 10 11  1  0
 10 20  1  0
 11 12  1  0
 11 29  1  0
 11 30  1  0
 12 13  1  0
 12 31  1  0
 12 32  1  0
 13 14  1  0
 13 19  2  0
 14 15  2  0
 14 33  1  0
 15 16  1  0
 15 34  1  0
 16 17  1  0
 16 18  2  0
 18 19  1  0
 18 35  1  0
 19 20  1  0
 20 36  1  0
 20 37  1  0
M  END

