
     RDKit          3D

 36 38  0  0  0  0  0  0  0  0999 V2000
    4.4756   -1.2924   -3.4396 O   0  0  0  0  0  0  0  0  0  0  0  0
    3.3635   -1.2901   -2.5683 C   0  0  0  0  0  0  0  0  0  0  0  0
    3.3764   -2.6050   -1.7926 C   0  0  1  0  0  0  0  0  0  0  0  0
    4.5955   -2.7688   -0.8739 C   0  0  0  0  0  0  0  0  0  0  0  0
    4.0955   -3.7360    0.2055 C   0  0  0  0  0  0  0  0  0  0  0  0
    2.6356   -3.3021    0.4118 C   0  0  0  0  0  0  0  0  0  0  0  0
    2.2422   -2.7113   -0.8719 N   0  0  0  0  0  0  0  0  0  0  0  0
    0.9331   -3.0129   -1.3979 C   0  0  0  0  0  0  0  0  0  0  0  0
   -0.0897   -1.9812   -1.0099 C   0  0  0  0  0  0  0  0  0  0  0  0
   -0.9699   -2.0227   -0.0572 N   0  0  0  0  0  0  0  0  0  0  0  0
   -1.5631   -0.7798   -0.1329 C   0  0  0  0  0  0  0  0  0  0  0  0
   -2.6457   -0.3451    0.7643 C   0  0  0  0  0  0  0  0  0  0  0  0
   -3.2143    0.9345    0.6429 C   0  0  0  0  0  0  0  0  0  0  0  0
   -4.2387    1.3220    1.5056 C   0  0  0  0  0  0  0  0  0  0  0  0
   -4.7087    0.4501    2.4933 C   0  0  0  0  0  0  0  0  0  0  0  0
   -4.1363   -0.8202    2.6055 C   0  0  0  0  0  0  0  0  0  0  0  0
   -4.7150   -1.9205    3.8368 Cl  0  0  0  0  0  0  0  0  0  0  0  0
   -3.1100   -1.2272    1.7519 C   0  0  0  0  0  0  0  0  0  0  0  0
   -1.0727   -0.0186   -1.0852 N   0  0  0  0  0  0  0  0  0  0  0  0
   -0.0986   -0.8123   -1.6696 O   0  0  0  0  0  0  0  0  0  0  0  0
    4.4880   -0.4597   -3.9262 H   0  0  0  0  0  0  0  0  0  0  0  0
    2.4096   -1.1919   -3.1245 H   0  0  0  0  0  0  0  0  0  0  0  0
    3.3965   -0.4546   -1.8398 H   0  0  0  0  0  0  0  0  0  0  0  0
    3.3697   -3.4279   -2.5428 H   0  0  0  0  0  0  0  0  0  0  0  0
    4.8505   -1.7931   -0.4255 H   0  0  0  0  0  0  0  0  0  0  0  0
    5.4805   -3.1235   -1.4194 H   0  0  0  0  0  0  0  0  0  0  0  0
    4.6886   -3.7023    1.1319 H   0  0  0  0  0  0  0  0  0  0  0  0
    4.1308   -4.7714   -0.1729 H   0  0  0  0  0  0  0  0  0  0  0  0
    2.5458   -2.5728    1.2395 H   0  0  0  0  0  0  0  0  0  0  0  0
    1.9794   -4.1533    0.6720 H   0  0  0  0  0  0  0  0  0  0  0  0
    0.5526   -3.9879   -1.0383 H   0  0  0  0  0  0  0  0  0  0  0  0
    0.9736   -3.0586   -2.4985 H   0  0  0  0  0  0  0  0  0  0  0  0
   -2.8462    1.6130   -0.1283 H   0  0  0  0  0  0  0  0  0  0  0  0
   -4.6818    2.3164    1.4126 H   0  0  0  0  0  0  0  0  0  0  0  0
   -5.5101    0.7465    3.1720 H   0  0  0  0  0  0  0  0  0  0  0  0
   -2.6669   -2.2188    1.8434 H   0  0  0  0  0  0  0  0  0  0  0  0
  1  2  1  0
  1 21  1  0
  2  3  1  0
  2 22  1  0
  2 23  1  0
  3  4  1  0
  3  7  1  0
  3 24  1  6
  4  5  1  0
  4 25  1  0
  4 26  1  0
  5  6  1  0
  5 27  1  0
  5 28  1  0
  6  7  1  0
  6 29  1  0
  6 30  1  0
  7  8  1  0
  8  9  1  0
  8 31  1  0
  8 32  1  0
  9 10  2  0
  9 20  1  0
 10 11  1  0
 11 12  1  0
 11 19  2  0
 12 13  2  0
 12 18  1  0
 13 14  1  0
 13 33  1  0
 14 15  2  0
 14 34  1  0
 15 16  1  0
 15 35  1  0
 16 17  1  0
 16 18  2  0
 18 36  1  0
 19 20  1  0
M  END

