
     RDKit          3D

 35 35  0  0  0  0  0  0  0  0999 V2000
    3.6204   -0.8190   -1.1112 C   0  0  0  0  0  0  0  0  0  0  0  0
    2.8253    0.3445   -0.9378 O   0  0  0  0  0  0  0  0  0  0  0  0
    3.4281    1.4563   -0.4740 C   0  0  0  0  0  0  0  0  0  0  0  0
    2.6190    2.6003   -0.3128 C   0  0  0  0  0  0  0  0  0  0  0  0
    3.2074    3.7657    0.1665 C   0  0  0  0  0  0  0  0  0  0  0  0
    2.4094    5.0427    0.3334 C   0  0  0  0  0  0  0  0  0  0  0  0
    0.9920    4.8073    0.5247 N   0  0  0  0  0  0  0  0  0  0  0  0
    0.1763    6.0082    0.5852 C   0  0  0  0  0  0  0  0  0  0  0  0
   -1.2995    5.6706    0.7877 C   0  0  0  0  0  0  0  0  0  0  0  0
   -2.2015    6.9141    0.7950 C   0  0  0  0  0  0  0  0  0  0  0  0
   -3.6561    6.6062    1.0313 C   0  0  0  0  0  0  0  0  0  0  0  0
   -4.3138    5.8221    0.1148 N   0  0  0  0  0  0  0  0  0  0  0  0
   -4.1914    7.0484    2.1182 N   0  0  0  0  0  0  0  0  0  0  0  0
   -5.5506    6.6626    2.1806 O   0  0  0  0  0  0  0  0  0  0  0  0
    4.5852    3.7359    0.4663 C   0  0  0  0  0  0  0  0  0  0  0  0
    5.2863    2.5533    0.2636 C   0  0  0  0  0  0  0  0  0  0  0  0
    4.7243    1.4268   -0.1974 N   0  0  0  0  0  0  0  0  0  0  0  0
    2.9424   -1.5937   -1.4936 H   0  0  0  0  0  0  0  0  0  0  0  0
    4.0693   -1.1450   -0.1595 H   0  0  0  0  0  0  0  0  0  0  0  0
    4.4382   -0.6442   -1.8283 H   0  0  0  0  0  0  0  0  0  0  0  0
    1.5581    2.5640   -0.5595 H   0  0  0  0  0  0  0  0  0  0  0  0
    2.5311    5.6480   -0.5856 H   0  0  0  0  0  0  0  0  0  0  0  0
    2.8732    5.6493    1.1444 H   0  0  0  0  0  0  0  0  0  0  0  0
    0.8445    4.2394    1.3596 H   0  0  0  0  0  0  0  0  0  0  0  0
    0.3014    6.5551   -0.3680 H   0  0  0  0  0  0  0  0  0  0  0  0
    0.5046    6.7158    1.3822 H   0  0  0  0  0  0  0  0  0  0  0  0
   -1.4283    5.1360    1.7459 H   0  0  0  0  0  0  0  0  0  0  0  0
   -1.6110    4.9667   -0.0014 H   0  0  0  0  0  0  0  0  0  0  0  0
   -2.0986    7.4492   -0.1686 H   0  0  0  0  0  0  0  0  0  0  0  0
   -1.8890    7.6121    1.5854 H   0  0  0  0  0  0  0  0  0  0  0  0
   -3.9628    5.7985   -0.8338 H   0  0  0  0  0  0  0  0  0  0  0  0
   -5.3209    5.7737    0.2250 H   0  0  0  0  0  0  0  0  0  0  0  0
   -5.8469    7.0752    2.9999 H   0  0  0  0  0  0  0  0  0  0  0  0
    5.0955    4.6207    0.8545 H   0  0  0  0  0  0  0  0  0  0  0  0
    6.3582    2.5017    0.4881 H   0  0  0  0  0  0  0  0  0  0  0  0
  1  2  1  0
  1 18  1  0
  1 19  1  0
  1 20  1  0
  2  3  1  0
  3  4  2  0
  3 17  1  0
  4  5  1  0
  4 21  1  0
  5  6  1  0
  5 15  2  0
  6  7  1  0
  6 22  1  0
  6 23  1  0
  7  8  1  0
  7 24  1  0
  8  9  1  0
  8 25  1  0
  8 26  1  0
  9 10  1  0
  9 27  1  0
  9 28  1  0
 10 11  1  0
 10 29  1  0
 10 30  1  0
 11 12  1  0
 11 13  2  0
 12 31  1  0
 12 32  1  0
 13 14  1  0
 14 33  1  0
 15 16  1  0
 15 34  1  0
 16 17  2  0
 16 35  1  0
M  END

