
     RDKit          3D

 31 33  0  0  0  0  0  0  0  0999 V2000
    0.9893   -0.0234   -0.2766 N   0  0  0  0  0  0  0  0  0  0  0  0
    2.3505   -0.0155   -0.1230 C   0  0  0  0  0  0  0  0  0  0  0  0
    3.0840   -1.1971   -0.1094 C   0  0  0  0  0  0  0  0  0  0  0  0
    4.4857   -1.1622    0.0710 C   0  0  0  0  0  0  0  0  0  0  0  0
    5.1867   -2.5140    0.0619 C   0  0  0  0  0  0  0  0  0  0  0  0
    4.4970   -3.5063   -0.1152 O   0  0  0  0  0  0  0  0  0  0  0  0
    6.6699   -2.6899    0.2592 C   0  0  0  0  0  0  0  0  0  0  0  0
    7.1479   -4.0148    0.2121 C   0  0  0  0  0  0  0  0  0  0  0  0
    8.4976   -4.2937    0.3846 C   0  0  0  0  0  0  0  0  0  0  0  0
    9.4100   -3.2540    0.6102 C   0  0  0  0  0  0  0  0  0  0  0  0
   11.0924   -3.6314    0.8229 Cl  0  0  0  0  0  0  0  0  0  0  0  0
    8.9470   -1.9292    0.6599 C   0  0  0  0  0  0  0  0  0  0  0  0
   10.0473   -0.6056    0.9380 Cl  0  0  0  0  0  0  0  0  0  0  0  0
    7.5891   -1.6524    0.4855 C   0  0  0  0  0  0  0  0  0  0  0  0
    5.1725   -0.0428    0.2260 N   0  0  0  0  0  0  0  0  0  0  0  0
    4.4936    1.1340    0.2260 C   0  0  0  0  0  0  0  0  0  0  0  0
    5.2331    2.3397    0.3969 C   0  0  0  0  0  0  0  0  0  0  0  0
    4.6001    3.5639    0.4219 C   0  0  0  0  0  0  0  0  0  0  0  0
    3.1931    3.6420    0.2834 C   0  0  0  0  0  0  0  0  0  0  0  0
    2.4474    2.4921    0.1122 C   0  0  0  0  0  0  0  0  0  0  0  0
    3.0706    1.2174    0.0673 C   0  0  0  0  0  0  0  0  0  0  0  0
    0.5514   -0.8914   -0.5578 H   0  0  0  0  0  0  0  0  0  0  0  0
    0.5185    0.8157   -0.5859 H   0  0  0  0  0  0  0  0  0  0  0  0
    2.6037   -2.1663   -0.2448 H   0  0  0  0  0  0  0  0  0  0  0  0
    6.4323   -4.8189    0.0372 H   0  0  0  0  0  0  0  0  0  0  0  0
    8.8675   -5.3196    0.3479 H   0  0  0  0  0  0  0  0  0  0  0  0
    7.2338   -0.6258    0.5219 H   0  0  0  0  0  0  0  0  0  0  0  0
    6.3157    2.2552    0.5102 H   0  0  0  0  0  0  0  0  0  0  0  0
    5.1826    4.4789    0.5554 H   0  0  0  0  0  0  0  0  0  0  0  0
    2.6961    4.6145    0.3186 H   0  0  0  0  0  0  0  0  0  0  0  0
    1.3611    2.5754    0.0294 H   0  0  0  0  0  0  0  0  0  0  0  0
  1  2  1  0
  1 22  1  0
  1 23  1  0
  2  3  2  0
  2 21  1  0
  3  4  1  0
  3 24  1  0
  4  5  1  0
  4 15  2  0
  5  6  2  0
  5  7  1  0
  7  8  2  0
  7 14  1  0
  8  9  1  0
  8 25  1  0
  9 10  2  0
  9 26  1  0
 10 11  1  0
 10 12  1  0
 12 13  1  0
 12 14  2  0
 14 27  1  0
 15 16  1  0
 16 17  1  0
 16 21  2  0
 17 18  2  0
 17 28  1  0
 18 19  1  0
 18 29  1  0
 19 20  2  0
 19 30  1  0
 20 21  1  0
 20 31  1  0
M  END

