
     RDKit          3D

 33 35  0  0  0  0  0  0  0  0999 V2000
    1.3468   -0.1204    1.2145 C   0  0  0  0  0  0  0  0  0  0  0  0
    2.2997    0.1269    0.0390 C   0  0  1  0  0  0  0  0  0  0  0  0
    2.1191    1.5293   -0.6014 C   0  0  0  0  0  0  0  0  0  0  0  0
    3.5085    1.9027   -1.1330 C   0  0  0  0  0  0  0  0  0  0  0  0
    4.4501    1.3693   -0.0431 C   0  0  0  0  0  0  0  0  0  0  0  0
    3.8160    0.0178    0.3889 C   0  0  2  0  0  0  0  0  0  0  0  0
    4.3491   -1.1844   -0.3935 C   0  0  0  0  0  0  0  0  0  0  0  0
    5.7517   -1.6001   -0.2505 C   0  0  0  0  0  0  0  0  0  0  0  0
    6.4569   -2.2672   -1.2748 C   0  0  0  0  0  0  0  0  0  0  0  0
    7.7901   -2.6359   -1.1181 C   0  0  0  0  0  0  0  0  0  0  0  0
    8.4675   -2.3592    0.0791 C   0  0  0  0  0  0  0  0  0  0  0  0
    9.7585   -2.7035    0.2891 O   0  0  0  0  0  0  0  0  0  0  0  0
    7.7894   -1.6900    1.1098 C   0  0  0  0  0  0  0  0  0  0  0  0
    6.4637   -1.3120    0.9375 C   0  0  0  0  0  0  0  0  0  0  0  0
    3.3544   -1.7079   -1.1643 C   0  0  0  0  0  0  0  0  0  0  0  0
    3.3661   -3.2208   -2.2993 Br  0  0  0  0  0  0  0  0  0  0  0  0
    2.0796   -0.9731   -1.0138 C   0  0  0  0  0  0  0  0  0  0  0  0
    1.0385   -1.1902   -1.5912 O   0  0  0  0  0  0  0  0  0  0  0  0
    1.4848    0.6427    1.9976 H   0  0  0  0  0  0  0  0  0  0  0  0
    1.5120   -1.1116    1.6672 H   0  0  0  0  0  0  0  0  0  0  0  0
    0.3033   -0.0806    0.8660 H   0  0  0  0  0  0  0  0  0  0  0  0
    1.8142    2.2456    0.1812 H   0  0  0  0  0  0  0  0  0  0  0  0
    1.3281    1.5230   -1.3667 H   0  0  0  0  0  0  0  0  0  0  0  0
    3.6293    2.9823   -1.3140 H   0  0  0  0  0  0  0  0  0  0  0  0
    3.7038    1.3918   -2.0914 H   0  0  0  0  0  0  0  0  0  0  0  0
    4.4462    2.0595    0.8176 H   0  0  0  0  0  0  0  0  0  0  0  0
    5.4955    1.2673   -0.3710 H   0  0  0  0  0  0  0  0  0  0  0  0
    3.9661   -0.1567    1.4663 H   0  0  0  0  0  0  0  0  0  0  0  0
    5.9598   -2.4878   -2.2182 H   0  0  0  0  0  0  0  0  0  0  0  0
    8.3133   -3.1431   -1.9350 H   0  0  0  0  0  0  0  0  0  0  0  0
   10.1072   -3.1573   -0.4899 H   0  0  0  0  0  0  0  0  0  0  0  0
    8.3232   -1.4751    2.0375 H   0  0  0  0  0  0  0  0  0  0  0  0
    5.9652   -0.7927    1.7571 H   0  0  0  0  0  0  0  0  0  0  0  0
  2  1  1  1
  1 19  1  0
  1 20  1  0
  1 21  1  0
  2  3  1  0
  2  6  1  0
  2 17  1  0
  3  4  1  0
  3 22  1  0
  3 23  1  0
  4  5  1  0
  4 24  1  0
  4 25  1  0
  5  6  1  0
  5 26  1  0
  5 27  1  0
  6  7  1  0
  6 28  1  1
  7  8  1  0
  7 15  2  0
  8  9  2  0
  8 14  1  0
  9 10  1  0
  9 29  1  0
 10 11  2  0
 10 30  1  0
 11 12  1  0
 11 13  1  0
 12 31  1  0
 13 14  2  0
 13 32  1  0
 14 33  1  0
 15 16  1  0
 15 17  1  0
 17 18  2  0
M  END

