
     RDKit          3D

 32 33  0  0  0  0  0  0  0  0999 V2000
    1.4978    0.9648   -0.9203 N   0  0  0  0  0  0  0  0  0  0  0  0
    2.8034    0.5200   -0.8641 C   0  0  0  0  0  0  0  0  0  0  0  0
    3.8806    1.2379   -1.4096 C   0  0  0  0  0  0  0  0  0  0  0  0
    5.1662    0.7047   -1.3418 C   0  0  0  0  0  0  0  0  0  0  0  0
    6.1759    1.4175   -1.8651 F   0  0  0  0  0  0  0  0  0  0  0  0
    5.4403   -0.5216   -0.7508 C   0  0  0  0  0  0  0  0  0  0  0  0
    4.3731   -1.2677   -0.2218 C   0  0  0  0  0  0  0  0  0  0  0  0
    4.6959   -2.5457    0.5256 C   0  0  0  0  0  0  0  0  0  0  0  0
    5.5388   -2.5128    1.4090 O   0  0  0  0  0  0  0  0  0  0  0  0
    4.0293   -3.6937    0.1751 N   0  0  0  0  0  0  0  0  0  0  0  0
    3.1881   -3.8725   -1.0043 C   0  0  0  0  0  0  0  0  0  0  0  0
    3.7445   -4.9824   -1.9066 C   0  0  0  0  0  0  0  0  0  0  0  0
    3.9723   -6.2778   -1.1203 C   0  0  0  0  0  0  0  0  0  0  0  0
    4.8392   -6.0286    0.1190 C   0  0  2  0  0  0  0  0  0  0  0  0
    5.8509   -5.7085   -0.2074 H   0  0  0  0  0  0  0  0  0  0  0  0
    4.9146   -7.1622    0.9603 O   0  0  0  0  0  0  0  0  0  0  0  0
    4.2442   -4.9008    0.9661 C   0  0  0  0  0  0  0  0  0  0  0  0
    3.0914   -0.7296   -0.2780 C   0  0  0  0  0  0  0  0  0  0  0  0
    2.0436   -1.4049    0.2576 F   0  0  0  0  0  0  0  0  0  0  0  0
    1.3550    1.9606   -1.0348 H   0  0  0  0  0  0  0  0  0  0  0  0
    0.8474    0.5183   -0.2847 H   0  0  0  0  0  0  0  0  0  0  0  0
    3.7264    2.2091   -1.8835 H   0  0  0  0  0  0  0  0  0  0  0  0
    6.4639   -0.8893   -0.6830 H   0  0  0  0  0  0  0  0  0  0  0  0
    3.1292   -2.9302   -1.5604 H   0  0  0  0  0  0  0  0  0  0  0  0
    2.1616   -4.1291   -0.6820 H   0  0  0  0  0  0  0  0  0  0  0  0
    4.6970   -4.6379   -2.3462 H   0  0  0  0  0  0  0  0  0  0  0  0
    3.0491   -5.1539   -2.7448 H   0  0  0  0  0  0  0  0  0  0  0  0
    4.4375   -7.0462   -1.7631 H   0  0  0  0  0  0  0  0  0  0  0  0
    3.0068   -6.6904   -0.7764 H   0  0  0  0  0  0  0  0  0  0  0  0
    5.3302   -7.8816    0.4682 H   0  0  0  0  0  0  0  0  0  0  0  0
    4.9111   -4.6546    1.7997 H   0  0  0  0  0  0  0  0  0  0  0  0
    3.2791   -5.2516    1.3771 H   0  0  0  0  0  0  0  0  0  0  0  0
  1  2  1  0
  1 20  1  0
  1 21  1  0
  2  3  2  0
  2 18  1  0
  3  4  1  0
  3 22  1  0
  4  5  1  0
  4  6  2  0
  6  7  1  0
  6 23  1  0
  7  8  1  0
  7 18  2  0
  8  9  2  0
  8 10  1  0
 10 11  1  0
 10 17  1  0
 11 12  1  0
 11 24  1  0
 11 25  1  0
 12 13  1  0
 12 26  1  0
 12 27  1  0
 13 14  1  0
 13 28  1  0
 13 29  1  0
 14 15  1  6
 14 16  1  0
 14 17  1  0
 16 30  1  0
 17 31  1  0
 17 32  1  0
 18 19  1  0
M  END

