
     RDKit          3D

 41 44  0  0  0  0  0  0  0  0999 V2000
    1.3200    0.7208   -1.5812 O   0  0  0  0  0  0  0  0  0  0  0  0
    2.0713    0.3316   -0.7212 C   0  0  0  0  0  0  0  0  0  0  0  0
    2.2820   -0.9950   -0.3823 N   0  0  0  0  0  0  0  0  0  0  0  0
    1.7057   -2.1170   -0.9498 C   0  0  0  0  0  0  0  0  0  0  0  0
    0.8987   -2.1568   -1.9487 N   0  0  0  0  0  0  0  0  0  0  0  0
    0.5237   -3.4540   -2.2375 C   0  0  0  0  0  0  0  0  0  0  0  0
   -0.3516   -3.8410   -3.2655 C   0  0  0  0  0  0  0  0  0  0  0  0
   -0.6486   -5.1874   -3.4503 C   0  0  0  0  0  0  0  0  0  0  0  0
   -0.0688   -6.1658   -2.6182 C   0  0  0  0  0  0  0  0  0  0  0  0
   -0.4003   -7.4956   -2.7288 O   0  0  0  0  0  0  0  0  0  0  0  0
   -0.3941   -8.1449   -3.9398 C   0  0  0  0  0  0  0  0  0  0  0  0
    0.4808   -7.8099   -4.9818 C   0  0  0  0  0  0  0  0  0  0  0  0
    0.4603   -8.5608   -6.1608 C   0  0  0  0  0  0  0  0  0  0  0  0
   -0.4151   -9.6410   -6.3059 C   0  0  0  0  0  0  0  0  0  0  0  0
   -1.2786   -9.9709   -5.2555 C   0  0  0  0  0  0  0  0  0  0  0  0
   -1.2739   -9.2263   -4.0750 C   0  0  0  0  0  0  0  0  0  0  0  0
    0.8057   -5.8134   -1.5874 C   0  0  0  0  0  0  0  0  0  0  0  0
    1.0874   -4.4577   -1.4053 C   0  0  0  0  0  0  0  0  0  0  0  0
    2.1243   -3.7013   -0.2119 S   0  0  0  0  0  0  0  0  0  0  0  0
    2.9595    1.3378    0.0596 C   0  0  1  0  0  0  0  0  0  0  0  0
    2.2284    2.6667    0.2677 C   0  0  0  0  0  0  0  0  0  0  0  0
    0.8297    2.5883    1.4442 S   0  0  0  0  0  0  0  0  0  0  0  0
    1.7310    2.0672    2.9487 C   0  0  0  0  0  0  0  0  0  0  0  0
    2.4115    0.7123    2.7971 C   0  0  0  0  0  0  0  0  0  0  0  0
    3.7935    0.7147    1.5843 S   0  0  0  0  0  0  0  0  0  0  0  0
    2.9526   -1.1369    0.3737 H   0  0  0  0  0  0  0  0  0  0  0  0
   -0.7952   -3.0718   -3.9001 H   0  0  0  0  0  0  0  0  0  0  0  0
   -1.3380   -5.4971   -4.2376 H   0  0  0  0  0  0  0  0  0  0  0  0
    1.1729   -6.9737   -4.8691 H   0  0  0  0  0  0  0  0  0  0  0  0
    1.1446   -8.2981   -6.9719 H   0  0  0  0  0  0  0  0  0  0  0  0
   -0.4236  -10.2229   -7.2304 H   0  0  0  0  0  0  0  0  0  0  0  0
   -1.9670  -10.8140   -5.3559 H   0  0  0  0  0  0  0  0  0  0  0  0
   -1.9404   -9.4661   -3.2441 H   0  0  0  0  0  0  0  0  0  0  0  0
    1.2323   -6.5951   -0.9576 H   0  0  0  0  0  0  0  0  0  0  0  0
    3.8200    1.5328   -0.6065 H   0  0  0  0  0  0  0  0  0  0  0  0
    1.7750    2.9686   -0.6869 H   0  0  0  0  0  0  0  0  0  0  0  0
    2.9412    3.4430    0.5845 H   0  0  0  0  0  0  0  0  0  0  0  0
    0.9627    2.0135    3.7367 H   0  0  0  0  0  0  0  0  0  0  0  0
    2.4600    2.8410    3.2408 H   0  0  0  0  0  0  0  0  0  0  0  0
    1.6767   -0.0605    2.5229 H   0  0  0  0  0  0  0  0  0  0  0  0
    2.8934    0.4084    3.7408 H   0  0  0  0  0  0  0  0  0  0  0  0
  1  2  2  0
  2  3  1  0
  2 20  1  0
  3  4  1  0
  3 26  1  0
  4  5  2  0
  4 19  1  0
  5  6  1  0
  6  7  2  0
  6 18  1  0
  7  8  1  0
  7 27  1  0
  8  9  2  0
  8 28  1  0
  9 10  1  0
  9 17  1  0
 10 11  1  0
 11 12  2  0
 11 16  1  0
 12 13  1  0
 12 29  1  0
 13 14  2  0
 13 30  1  0
 14 15  1  0
 14 31  1  0
 15 16  2  0
 15 32  1  0
 16 33  1  0
 17 18  2  0
 17 34  1  0
 18 19  1  0
 20 21  1  0
 20 25  1  0
 20 35  1  6
 21 22  1  0
 21 36  1  0
 21 37  1  0
 22 23  1  0
 23 24  1  0
 23 38  1  0
 23 39  1  0
 24 25  1  0
 24 40  1  0
 24 41  1  0
M  END

