
     RDKit          3D

 35 36  0  0  0  0  0  0  0  0999 V2000
    4.8183    2.3446    1.9364 C   0  0  0  0  0  0  0  0  0  0  0  0
    4.6043    0.9335    1.8491 O   0  0  0  0  0  0  0  0  0  0  0  0
    4.8826    0.3581    0.6662 C   0  0  0  0  0  0  0  0  0  0  0  0
    5.2682    0.9662   -0.3005 O   0  0  0  0  0  0  0  0  0  0  0  0
    4.5919   -1.1537    0.6820 C   0  0  1  0  0  0  0  0  0  0  0  0
    4.8905   -1.8156   -0.5699 N   0  0  0  0  0  0  0  0  0  0  0  0
    5.2685   -1.8615    1.8639 C   0  0  0  0  0  0  0  0  0  0  0  0
    7.0999   -1.7018    1.7709 S   0  0  0  0  0  0  0  0  0  0  0  0
    7.5369   -2.8891    3.1125 C   0  0  0  0  0  0  0  0  0  0  0  0
    9.0260   -2.9522    3.3260 C   0  0  0  0  0  0  0  0  0  0  0  0
    9.7327   -4.0365    2.9077 C   0  0  0  0  0  0  0  0  0  0  0  0
   11.1738   -4.1764    3.1009 C   0  0  0  0  0  0  0  0  0  0  0  0
   11.8505   -5.1049    2.7518 O   0  0  0  0  0  0  0  0  0  0  0  0
   11.7932   -3.1206    3.7628 O   0  0  0  0  0  0  0  0  0  0  0  0
   11.1273   -2.0207    4.1901 C   0  0  0  0  0  0  0  0  0  0  0  0
   11.8878   -1.0411    4.8409 C   0  0  0  0  0  0  0  0  0  0  0  0
   11.2504    0.1082    5.2967 C   0  0  0  0  0  0  0  0  0  0  0  0
   12.2673    1.4494    6.1827 Br  0  0  0  0  0  0  0  0  0  0  0  0
    9.8716    0.2994    5.1116 C   0  0  0  0  0  0  0  0  0  0  0  0
    9.1328   -0.6832    4.4646 C   0  0  0  0  0  0  0  0  0  0  0  0
    9.7367   -1.8675    3.9921 C   0  0  0  0  0  0  0  0  0  0  0  0
    4.5258    2.6371    2.9524 H   0  0  0  0  0  0  0  0  0  0  0  0
    4.2068    2.8785    1.1936 H   0  0  0  0  0  0  0  0  0  0  0  0
    5.8765    2.5881    1.7579 H   0  0  0  0  0  0  0  0  0  0  0  0
    3.5044   -1.2311    0.8748 H   0  0  0  0  0  0  0  0  0  0  0  0
    5.9024   -1.8514   -0.7052 H   0  0  0  0  0  0  0  0  0  0  0  0
    4.5303   -1.2591   -1.3453 H   0  0  0  0  0  0  0  0  0  0  0  0
    5.0051   -2.9292    1.8239 H   0  0  0  0  0  0  0  0  0  0  0  0
    4.9161   -1.4305    2.8117 H   0  0  0  0  0  0  0  0  0  0  0  0
    7.1571   -3.8837    2.8377 H   0  0  0  0  0  0  0  0  0  0  0  0
    7.0295   -2.5707    4.0378 H   0  0  0  0  0  0  0  0  0  0  0  0
    9.2530   -4.8765    2.4029 H   0  0  0  0  0  0  0  0  0  0  0  0
   12.9574   -1.2029    4.9736 H   0  0  0  0  0  0  0  0  0  0  0  0
    9.3916    1.2114    5.4678 H   0  0  0  0  0  0  0  0  0  0  0  0
    8.0677   -0.5209    4.2943 H   0  0  0  0  0  0  0  0  0  0  0  0
  1  2  1  0
  1 22  1  0
  1 23  1  0
  1 24  1  0
  2  3  1  0
  3  4  2  0
  3  5  1  0
  5  6  1  0
  5  7  1  0
  5 25  1  1
  6 26  1  0
  6 27  1  0
  7  8  1  0
  7 28  1  0
  7 29  1  0
  8  9  1  0
  9 10  1  0
  9 30  1  0
  9 31  1  0
 10 11  2  0
 10 21  1  0
 11 12  1  0
 11 32  1  0
 12 13  2  0
 12 14  1  0
 14 15  1  0
 15 16  1  0
 15 21  2  0
 16 17  2  0
 16 33  1  0
 17 18  1  0
 17 19  1  0
 19 20  2  0
 19 34  1  0
 20 21  1  0
 20 35  1  0
M  END

