
     RDKit          3D

 54 58  0  0  0  0  0  0  0  0999 V2000
    0.5561    4.0960   -1.1359 C   0  0  0  0  0  0  0  0  0  0  0  0
    1.4413    3.6608   -2.1418 O   0  0  0  0  0  0  0  0  0  0  0  0
    2.6339    3.1157   -1.7813 C   0  0  0  0  0  0  0  0  0  0  0  0
    3.0854    2.9669   -0.4642 C   0  0  0  0  0  0  0  0  0  0  0  0
    4.3363    2.3932   -0.2064 C   0  0  0  0  0  0  0  0  0  0  0  0
    5.1617    1.9512   -1.2465 C   0  0  0  0  0  0  0  0  0  0  0  0
    6.4088    1.4696   -1.0725 O   0  0  0  0  0  0  0  0  0  0  0  0
    6.7909    0.9717    0.1935 C   0  0  0  0  0  0  0  0  0  0  0  0
    4.6905    2.0594   -2.5798 C   0  0  0  0  0  0  0  0  0  0  0  0
    5.4866    1.5871   -3.7354 C   0  0  0  0  0  0  0  0  0  0  0  0
    5.6472    2.4778   -4.7465 O   0  0  0  0  0  0  0  0  0  0  0  0
    6.0006    0.3411   -3.9089 C   0  0  0  0  0  0  0  0  0  0  0  0
    5.8084   -0.8325   -3.0621 C   0  0  0  0  0  0  0  0  0  0  0  0
    5.2812   -0.9513   -1.9760 O   0  0  0  0  0  0  0  0  0  0  0  0
    6.3738   -2.0250   -3.8520 C   0  0  0  0  0  0  0  0  0  0  0  0
    6.3548   -3.1739   -3.4674 O   0  0  0  0  0  0  0  0  0  0  0  0
    6.8401   -1.5325   -5.0618 N   0  0  0  0  0  0  0  0  0  0  0  0
    7.3788   -2.3027   -6.1217 C   0  0  0  0  0  0  0  0  0  0  0  0
    7.5863   -3.6901   -5.9860 C   0  0  0  0  0  0  0  0  0  0  0  0
    8.1003   -4.4619   -7.0430 C   0  0  0  0  0  0  0  0  0  0  0  0
    8.4066   -3.8180   -8.2270 C   0  0  0  0  0  0  0  0  0  0  0  0
    8.2054   -2.4459   -8.3662 C   0  0  0  0  0  0  0  0  0  0  0  0
    7.6969   -1.6620   -7.3494 C   0  0  0  0  0  0  0  0  0  0  0  0
    8.5572   -2.0619   -9.6328 O   0  0  0  0  0  0  0  0  0  0  0  0
    9.1696   -3.2031  -10.2289 C   0  0  0  0  0  0  0  0  0  0  0  0
    8.8888   -4.3281   -9.4050 O   0  0  0  0  0  0  0  0  0  0  0  0
    6.8153   -0.0633   -5.1219 C   0  0  2  0  0  0  0  0  0  0  0  0
    8.2250    0.5356   -5.0467 C   0  0  0  0  0  0  0  0  0  0  0  0
    8.6101    1.6029   -5.8683 C   0  0  0  0  0  0  0  0  0  0  0  0
    9.8952    2.1294   -5.7229 C   0  0  0  0  0  0  0  0  0  0  0  0
   10.7466    1.5713   -4.7681 C   0  0  0  0  0  0  0  0  0  0  0  0
   10.2646    0.5084   -3.9959 C   0  0  0  0  0  0  0  0  0  0  0  0
    9.0373    0.0067   -4.1283 N   0  0  0  0  0  0  0  0  0  0  0  0
    3.4496    2.6617   -2.8275 C   0  0  0  0  0  0  0  0  0  0  0  0
   -0.3359    4.4814   -1.6478 H   0  0  0  0  0  0  0  0  0  0  0  0
    0.9927    4.9061   -0.5231 H   0  0  0  0  0  0  0  0  0  0  0  0
    0.2542    3.2696   -0.4668 H   0  0  0  0  0  0  0  0  0  0  0  0
    2.4765    3.2946    0.3787 H   0  0  0  0  0  0  0  0  0  0  0  0
    4.6682    2.3053    0.8281 H   0  0  0  0  0  0  0  0  0  0  0  0
    7.7704    0.4957    0.0546 H   0  0  0  0  0  0  0  0  0  0  0  0
    6.0726    0.2171    0.5540 H   0  0  0  0  0  0  0  0  0  0  0  0
    6.8907    1.7801    0.9405 H   0  0  0  0  0  0  0  0  0  0  0  0
    5.3278    3.3452   -4.4571 H   0  0  0  0  0  0  0  0  0  0  0  0
    7.3355   -4.1647   -5.0419 H   0  0  0  0  0  0  0  0  0  0  0  0
    8.2509   -5.5363   -6.9267 H   0  0  0  0  0  0  0  0  0  0  0  0
    7.5592   -0.5967   -7.5148 H   0  0  0  0  0  0  0  0  0  0  0  0
   10.2661   -3.0468  -10.2889 H   0  0  0  0  0  0  0  0  0  0  0  0
    8.7520   -3.3643  -11.2361 H   0  0  0  0  0  0  0  0  0  0  0  0
    6.3245    0.2761   -6.0473 H   0  0  0  0  0  0  0  0  0  0  0  0
    7.9123    2.0137   -6.6010 H   0  0  0  0  0  0  0  0  0  0  0  0
   10.2278    2.9606   -6.3503 H   0  0  0  0  0  0  0  0  0  0  0  0
   11.7621    1.9463   -4.6220 H   0  0  0  0  0  0  0  0  0  0  0  0
   10.9032    0.0436   -3.2351 H   0  0  0  0  0  0  0  0  0  0  0  0
    3.0632    2.7411   -3.8464 H   0  0  0  0  0  0  0  0  0  0  0  0
  1  2  1  0
  1 35  1  0
  1 36  1  0
  1 37  1  0
  2  3  1  0
  3  4  2  0
  3 34  1  0
  4  5  1  0
  4 38  1  0
  5  6  2  0
  5 39  1  0
  6  7  1  0
  6  9  1  0
  7  8  1  0
  8 40  1  0
  8 41  1  0
  8 42  1  0
  9 10  1  0
  9 34  2  0
 10 11  1  0
 10 12  2  0
 11 43  1  0
 12 13  1  0
 12 27  1  0
 13 14  2  0
 13 15  1  0
 15 16  2  0
 15 17  1  0
 17 18  1  0
 17 27  1  0
 18 19  2  0
 18 23  1  0
 19 20  1  0
 19 44  1  0
 20 21  2  0
 20 45  1  0
 21 22  1  0
 21 26  1  0
 22 23  2  0
 22 24  1  0
 23 46  1  0
 24 25  1  0
 25 26  1  0
 25 47  1  0
 25 48  1  0
 27 28  1  0
 27 49  1  6
 28 29  2  0
 28 33  1  0
 29 30  1  0
 29 50  1  0
 30 31  2  0
 30 51  1  0
 31 32  1  0
 31 52  1  0
 32 33  2  0
 32 53  1  0
 34 54  1  0
M  END

