
     RDKit          3D

 49 51  0  0  0  0  0  0  0  0999 V2000
    0.3565    2.4698    0.2998 C   0  0  0  0  0  0  0  0  0  0  0  0
    1.8225    2.1784    0.6612 C   0  0  1  0  0  0  0  0  0  0  0  0
    2.0808    0.6711    0.8184 C   0  0  0  0  0  0  0  0  0  0  0  0
    2.7444    2.7726   -0.3664 C   0  0  0  0  0  0  0  0  0  0  0  0
    3.6075    3.7144   -0.0780 N   0  0  0  0  0  0  0  0  0  0  0  0
    4.2275    3.9747   -1.3035 O   0  0  0  0  0  0  0  0  0  0  0  0
    3.6754    3.1536   -2.2073 C   0  0  0  0  0  0  0  0  0  0  0  0
    4.2100    3.1581   -3.6257 C   0  0  1  0  0  0  0  0  0  0  0  0
    4.4607    4.5881   -4.1223 C   0  0  0  0  0  0  0  0  0  0  0  0
    5.3668    2.2907   -3.8312 N   0  0  0  0  0  0  0  0  0  0  0  0
    6.5973    2.5295   -3.0826 C   0  0  0  0  0  0  0  0  0  0  0  0
    6.7297    1.6624   -1.8197 C   0  0  0  0  0  0  0  0  0  0  0  0
    6.4810    0.2513   -2.1375 N   0  0  0  0  0  0  0  0  0  0  0  0
    7.7521   -0.8218   -2.2681 S   0  0  1  0  0  0  0  0  0  0  0  0
    7.5187   -1.6857   -3.4313 O   0  0  0  0  0  0  0  0  0  0  0  0
    8.9967   -0.0667   -2.1207 O   0  0  0  0  0  0  0  0  0  0  0  0
    7.5959   -1.8917   -0.8264 C   0  0  0  0  0  0  0  0  0  0  0  0
    7.4920   -3.2747   -1.0043 C   0  0  0  0  0  0  0  0  0  0  0  0
    7.4199   -4.1193    0.1065 C   0  0  0  0  0  0  0  0  0  0  0  0
    7.4557   -3.5808    1.3963 C   0  0  0  0  0  0  0  0  0  0  0  0
    7.5605   -2.1990    1.5840 C   0  0  0  0  0  0  0  0  0  0  0  0
    7.6340   -1.3677    0.4709 C   0  0  0  0  0  0  0  0  0  0  0  0
    7.7226   -0.0455    0.6529 F   0  0  0  0  0  0  0  0  0  0  0  0
    5.2279   -0.0138   -2.8551 C   0  0  0  0  0  0  0  0  0  0  0  0
    5.1433    0.8764   -4.1046 C   0  0  0  0  0  0  0  0  0  0  0  0
    2.7545    2.3918   -1.6915 N   0  0  0  0  0  0  0  0  0  0  0  0
   -0.3178    2.0479    1.0616 H   0  0  0  0  0  0  0  0  0  0  0  0
    0.1000    2.0224   -0.6733 H   0  0  0  0  0  0  0  0  0  0  0  0
    0.1664    3.5526    0.2381 H   0  0  0  0  0  0  0  0  0  0  0  0
    2.0626    2.6823    1.6113 H   0  0  0  0  0  0  0  0  0  0  0  0
    1.8796    0.1404   -0.1255 H   0  0  0  0  0  0  0  0  0  0  0  0
    1.4238    0.2487    1.5950 H   0  0  0  0  0  0  0  0  0  0  0  0
    3.1239    0.4698    1.1084 H   0  0  0  0  0  0  0  0  0  0  0  0
    3.3961    2.7229   -4.2243 H   0  0  0  0  0  0  0  0  0  0  0  0
    5.2289    5.1018   -3.5262 H   0  0  0  0  0  0  0  0  0  0  0  0
    3.5399    5.1887   -4.0598 H   0  0  0  0  0  0  0  0  0  0  0  0
    4.7949    4.5534   -5.1688 H   0  0  0  0  0  0  0  0  0  0  0  0
    6.6729    3.5925   -2.8114 H   0  0  0  0  0  0  0  0  0  0  0  0
    7.4570    2.2983   -3.7391 H   0  0  0  0  0  0  0  0  0  0  0  0
    6.0083    1.9730   -1.0449 H   0  0  0  0  0  0  0  0  0  0  0  0
    7.7360    1.7587   -1.3950 H   0  0  0  0  0  0  0  0  0  0  0  0
    7.4700   -3.6658   -2.0228 H   0  0  0  0  0  0  0  0  0  0  0  0
    7.3389   -5.1989   -0.0372 H   0  0  0  0  0  0  0  0  0  0  0  0
    7.4006   -4.2378    2.2675 H   0  0  0  0  0  0  0  0  0  0  0  0
    7.5883   -1.7509    2.5792 H   0  0  0  0  0  0  0  0  0  0  0  0
    4.3851    0.1928   -2.1741 H   0  0  0  0  0  0  0  0  0  0  0  0
    5.1915   -1.0733   -3.1402 H   0  0  0  0  0  0  0  0  0  0  0  0
    4.1664    0.7476   -4.5962 H   0  0  0  0  0  0  0  0  0  0  0  0
    5.9201    0.5281   -4.8109 H   0  0  0  0  0  0  0  0  0  0  0  0
  1  2  1  0
  1 27  1  0
  1 28  1  0
  1 29  1  0
  2  3  1  0
  2  4  1  0
  2 30  1  1
  3 31  1  0
  3 32  1  0
  3 33  1  0
  4  5  2  0
  4 26  1  0
  5  6  1  0
  6  7  1  0
  7  8  1  0
  7 26  2  0
  8  9  1  0
  8 10  1  0
  8 34  1  6
  9 35  1  0
  9 36  1  0
  9 37  1  0
 10 11  1  0
 10 25  1  0
 11 12  1  0
 11 38  1  0
 11 39  1  0
 12 13  1  0
 12 40  1  0
 12 41  1  0
 13 14  1  0
 13 24  1  0
 14 15  2  0
 14 16  2  0
 14 17  1  1
 17 18  2  0
 17 22  1  0
 18 19  1  0
 18 42  1  0
 19 20  2  0
 19 43  1  0
 20 21  1  0
 20 44  1  0
 21 22  2  0
 21 45  1  0
 22 23  1  0
 24 25  1  0
 24 46  1  0
 24 47  1  0
 25 48  1  0
 25 49  1  0
M  END

