
     RDKit          3D

 61 64  0  0  0  0  0  0  0  0999 V2000
    0.5868   -0.3754    0.4956 C   0  0  0  0  0  0  0  0  0  0  0  0
    1.2555    0.2491   -0.7026 C   0  0  0  0  0  0  0  0  0  0  0  0
    1.8818    1.4966   -0.5831 C   0  0  0  0  0  0  0  0  0  0  0  0
    2.5238    2.1052   -1.6763 C   0  0  0  0  0  0  0  0  0  0  0  0
    3.1653    3.3527   -1.5944 N   0  0  0  0  0  0  0  0  0  0  0  0
    3.2889    4.2035   -0.5137 C   0  0  0  0  0  0  0  0  0  0  0  0
    2.8581    3.9582    0.5968 O   0  0  0  0  0  0  0  0  0  0  0  0
    4.0027    5.5146   -0.8449 C   0  0  0  0  0  0  0  0  0  0  0  0
    4.4771    6.2571    0.4121 C   0  0  0  0  0  0  0  0  0  0  0  0
    5.0988    7.5984    0.0954 C   0  0  0  0  0  0  0  0  0  0  0  0
    4.3000    8.7497   -0.0237 C   0  0  0  0  0  0  0  0  0  0  0  0
    4.8569    9.9849   -0.3533 C   0  0  0  0  0  0  0  0  0  0  0  0
    6.2373   10.0781   -0.5606 C   0  0  0  0  0  0  0  0  0  0  0  0
    6.9665   11.6719   -0.9688 S   0  0  1  0  0  0  0  0  0  0  0  0
    8.2876   11.3869   -1.5408 O   0  0  0  0  0  0  0  0  0  0  0  0
    5.9553   12.4395   -1.7026 O   0  0  0  0  0  0  0  0  0  0  0  0
    7.1887   12.4406    0.4960 N   0  0  0  0  0  0  0  0  0  0  0  0
    6.3777   13.6060    0.8619 C   0  0  0  0  0  0  0  0  0  0  0  0
    6.9858   14.9556    0.4681 C   0  0  0  0  0  0  0  0  0  0  0  0
    8.4325   15.1950    0.9280 C   0  0  0  0  0  0  0  0  0  0  0  0
    9.4714   14.2790    0.2529 C   0  0  0  0  0  0  0  0  0  0  0  0
    9.6740   12.8859    0.8721 C   0  0  0  0  0  0  0  0  0  0  0  0
    8.3849   12.1476    1.2867 C   0  0  0  0  0  0  0  0  0  0  0  0
    7.0535    8.9485   -0.4617 C   0  0  0  0  0  0  0  0  0  0  0  0
    6.4789    7.7190   -0.1303 C   0  0  0  0  0  0  0  0  0  0  0  0
    2.5347    1.4456   -2.9182 C   0  0  0  0  0  0  0  0  0  0  0  0
    1.9085    0.2122   -3.0561 C   0  0  0  0  0  0  0  0  0  0  0  0
    1.2774   -0.3862   -1.9605 C   0  0  0  0  0  0  0  0  0  0  0  0
    0.6670   -1.6645   -2.1432 N   0  0  0  0  0  0  0  0  0  0  0  0
    1.1934   -2.8122   -2.6342 C   0  0  0  0  0  0  0  0  0  0  0  0
    0.2558   -3.7312   -2.6586 N   0  0  0  0  0  0  0  0  0  0  0  0
   -0.8590   -3.1341   -2.1757 N   0  0  0  0  0  0  0  0  0  0  0  0
   -0.6358   -1.9062   -1.8669 N   0  0  0  0  0  0  0  0  0  0  0  0
    0.8416    0.1746    1.4118 H   0  0  0  0  0  0  0  0  0  0  0  0
    0.8896   -1.4266    0.6251 H   0  0  0  0  0  0  0  0  0  0  0  0
   -0.5079   -0.3793    0.3798 H   0  0  0  0  0  0  0  0  0  0  0  0
    1.8838    2.0094    0.3759 H   0  0  0  0  0  0  0  0  0  0  0  0
    3.5784    3.6770   -2.4615 H   0  0  0  0  0  0  0  0  0  0  0  0
    3.2952    6.1478   -1.4111 H   0  0  0  0  0  0  0  0  0  0  0  0
    4.8493    5.3243   -1.5272 H   0  0  0  0  0  0  0  0  0  0  0  0
    5.1998    5.6241    0.9510 H   0  0  0  0  0  0  0  0  0  0  0  0
    3.6162    6.3797    1.0859 H   0  0  0  0  0  0  0  0  0  0  0  0
    3.2214    8.6761    0.1433 H   0  0  0  0  0  0  0  0  0  0  0  0
    4.2282   10.8701   -0.4651 H   0  0  0  0  0  0  0  0  0  0  0  0
    6.2317   13.5575    1.9562 H   0  0  0  0  0  0  0  0  0  0  0  0
    5.3878   13.5026    0.3974 H   0  0  0  0  0  0  0  0  0  0  0  0
    6.3308   15.7474    0.8738 H   0  0  0  0  0  0  0  0  0  0  0  0
    6.9400   15.0444   -0.6308 H   0  0  0  0  0  0  0  0  0  0  0  0
    8.5042   15.1134    2.0295 H   0  0  0  0  0  0  0  0  0  0  0  0
    8.6860   16.2425    0.6939 H   0  0  0  0  0  0  0  0  0  0  0  0
   10.4517   14.7841    0.2445 H   0  0  0  0  0  0  0  0  0  0  0  0
    9.1912   14.1543   -0.8069 H   0  0  0  0  0  0  0  0  0  0  0  0
   10.3098   12.9617    1.7724 H   0  0  0  0  0  0  0  0  0  0  0  0
   10.2256   12.2689    0.1467 H   0  0  0  0  0  0  0  0  0  0  0  0
    8.1187   12.4072    2.3244 H   0  0  0  0  0  0  0  0  0  0  0  0
    8.5613   11.0597    1.2880 H   0  0  0  0  0  0  0  0  0  0  0  0
    8.1225    9.0369   -0.6619 H   0  0  0  0  0  0  0  0  0  0  0  0
    7.1180    6.8351   -0.0476 H   0  0  0  0  0  0  0  0  0  0  0  0
    3.0236    1.9042   -3.7820 H   0  0  0  0  0  0  0  0  0  0  0  0
    1.8960   -0.2888   -4.0263 H   0  0  0  0  0  0  0  0  0  0  0  0
    2.2324   -2.9279   -2.9358 H   0  0  0  0  0  0  0  0  0  0  0  0
  1  2  1  0
  1 34  1  0
  1 35  1  0
  1 36  1  0
  2  3  2  0
  2 28  1  0
  3  4  1  0
  3 37  1  0
  4  5  1  0
  4 26  2  0
  5  6  1  0
  5 38  1  0
  6  7  2  0
  6  8  1  0
  8  9  1  0
  8 39  1  0
  8 40  1  0
  9 10  1  0
  9 41  1  0
  9 42  1  0
 10 11  2  0
 10 25  1  0
 11 12  1  0
 11 43  1  0
 12 13  2  0
 12 44  1  0
 14 13  1  1
 13 24  1  0
 14 15  2  0
 14 16  2  0
 14 17  1  0
 17 18  1  0
 17 23  1  0
 18 19  1  0
 18 45  1  0
 18 46  1  0
 19 20  1  0
 19 47  1  0
 19 48  1  0
 20 21  1  0
 20 49  1  0
 20 50  1  0
 21 22  1  0
 21 51  1  0
 21 52  1  0
 22 23  1  0
 22 53  1  0
 22 54  1  0
 23 55  1  0
 23 56  1  0
 24 25  2  0
 24 57  1  0
 25 58  1  0
 26 27  1  0
 26 59  1  0
 27 28  2  0
 27 60  1  0
 28 29  1  0
 29 30  1  0
 29 33  1  0
 30 31  2  0
 30 61  1  0
 31 32  1  0
 32 33  2  0
M  END

