
     RDKit          3D

 25 26  0  0  0  0  0  0  0  0999 V2000
    1.0353    0.1970   -0.1861 C   0  0  0  0  0  0  0  0  0  0  0  0
    2.5429    0.1919    0.0170 C   0  0  1  0  0  0  0  0  0  0  0  0
    3.1671    1.1530    1.0672 C   0  0  0  0  0  0  0  0  0  0  0  0
    4.1131    0.0137    1.5225 C   0  0  0  0  0  0  0  0  0  0  0  0
    3.2135   -1.0163    0.7744 C   0  0  1  0  0  0  0  0  0  0  0  0
    2.3165   -1.7004    1.6368 O   0  0  0  0  0  0  0  0  0  0  0  0
    3.9151   -2.1156   -0.0051 C   0  0  1  0  0  0  0  0  0  0  0  0
    3.1446   -2.9241   -1.0792 C   0  0  0  0  0  0  0  0  0  0  0  0
    4.3670   -2.9241   -1.9053 N   0  0  0  0  0  0  0  0  0  0  0  0
    4.9305   -1.8024   -1.1322 C   0  0  0  0  0  0  0  0  0  0  0  0
    0.6968    1.1724   -0.5738 H   0  0  0  0  0  0  0  0  0  0  0  0
    0.4949    0.0093    0.7557 H   0  0  0  0  0  0  0  0  0  0  0  0
    0.7180   -0.5778   -0.9021 H   0  0  0  0  0  0  0  0  0  0  0  0
    3.0445    0.3363   -0.9537 H   0  0  0  0  0  0  0  0  0  0  0  0
    2.4433    1.4441    1.8471 H   0  0  0  0  0  0  0  0  0  0  0  0
    3.6355    2.0727    0.6846 H   0  0  0  0  0  0  0  0  0  0  0  0
    4.2238   -0.1647    2.6039 H   0  0  0  0  0  0  0  0  0  0  0  0
    5.1172    0.0956    1.0787 H   0  0  0  0  0  0  0  0  0  0  0  0
    1.8785   -1.0604    2.2126 H   0  0  0  0  0  0  0  0  0  0  0  0
    4.3627   -2.7990    0.7336 H   0  0  0  0  0  0  0  0  0  0  0  0
    2.2994   -2.3481   -1.5054 H   0  0  0  0  0  0  0  0  0  0  0  0
    2.7708   -3.9210   -0.7910 H   0  0  0  0  0  0  0  0  0  0  0  0
    4.2404   -2.7646   -2.9033 H   0  0  0  0  0  0  0  0  0  0  0  0
    4.7699   -0.8032   -1.5854 H   0  0  0  0  0  0  0  0  0  0  0  0
    6.0033   -1.8957   -0.8867 H   0  0  0  0  0  0  0  0  0  0  0  0
  1  2  1  0
  1 11  1  0
  1 12  1  0
  1 13  1  0
  2  3  1  0
  2  5  1  0
  2 14  1  6
  3  4  1  0
  3 15  1  0
  3 16  1  0
  4  5  1  0
  4 17  1  0
  4 18  1  0
  5  6  1  1
  5  7  1  0
  6 19  1  0
  7  8  1  0
  7 10  1  0
  7 20  1  1
  8  9  1  0
  8 21  1  0
  8 22  1  0
  9 10  1  0
  9 23  1  0
 10 24  1  0
 10 25  1  0
M  END

