
     RDKit          3D

 55 58  0  0  0  0  0  0  0  0999 V2000
    0.7410   -1.0829    0.4276 C   0  0  0  0  0  0  0  0  0  0  0  0
    2.0903   -0.4449    0.1331 C   0  0  1  0  0  0  0  0  0  0  0  0
    2.2119   -0.1482   -1.2758 O   0  0  0  0  0  0  0  0  0  0  0  0
    2.9187   -0.9771   -2.0637 C   0  0  0  0  0  0  0  0  0  0  0  0
    3.4027   -2.0210   -1.7137 O   0  0  0  0  0  0  0  0  0  0  0  0
    3.0997   -0.3849   -3.4595 C   0  0  0  0  0  0  0  0  0  0  0  0
    1.9987    0.4326   -3.9367 N   0  0  0  0  0  0  0  0  0  0  0  0
    2.0198    1.7748   -3.6483 C   0  0  0  0  0  0  0  0  0  0  0  0
    2.9119    2.3024   -3.0004 O   0  0  0  0  0  0  0  0  0  0  0  0
    0.8180    2.5624   -4.1447 C   0  0  0  0  0  0  0  0  0  0  0  0
    0.2384    2.0373   -5.3226 O   0  0  0  0  0  0  0  0  0  0  0  0
    0.0087    0.6930   -5.2977 C   0  0  0  0  0  0  0  0  0  0  0  0
   -1.0649    0.1652   -6.0136 C   0  0  0  0  0  0  0  0  0  0  0  0
   -1.2864   -1.2147   -6.0222 C   0  0  0  0  0  0  0  0  0  0  0  0
   -0.4399   -2.0608   -5.3026 C   0  0  0  0  0  0  0  0  0  0  0  0
    0.6405   -1.5358   -4.5858 C   0  0  0  0  0  0  0  0  0  0  0  0
    0.8822   -0.1557   -4.5871 C   0  0  0  0  0  0  0  0  0  0  0  0
    2.3055    0.8411    0.9549 C   0  0  0  0  0  0  0  0  0  0  0  0
    2.1170    0.7938    2.1595 O   0  0  0  0  0  0  0  0  0  0  0  0
    2.7131    1.9353    0.2517 N   0  0  0  0  0  0  0  0  0  0  0  0
    3.0029    3.2287    0.7404 C   0  0  0  0  0  0  0  0  0  0  0  0
    3.3443    4.2164   -0.2017 C   0  0  0  0  0  0  0  0  0  0  0  0
    3.6423    5.5140    0.2088 C   0  0  0  0  0  0  0  0  0  0  0  0
    3.6102    5.8442    1.5671 C   0  0  0  0  0  0  0  0  0  0  0  0
    3.9931    7.1174    1.9264 O   0  0  0  0  0  0  0  0  0  0  0  0
    3.2599    7.8765    2.8023 C   0  0  0  0  0  0  0  0  0  0  0  0
    3.9608    8.8583    3.5158 C   0  0  0  0  0  0  0  0  0  0  0  0
    3.2735    9.7096    4.3820 C   0  0  0  0  0  0  0  0  0  0  0  0
    1.8895    9.5868    4.5483 C   0  0  0  0  0  0  0  0  0  0  0  0
    1.1983    8.6058    3.8316 C   0  0  0  0  0  0  0  0  0  0  0  0
    1.8724    7.7497    2.9557 C   0  0  0  0  0  0  0  0  0  0  0  0
    3.2782    4.8662    2.5107 C   0  0  0  0  0  0  0  0  0  0  0  0
    2.9704    3.5662    2.1057 C   0  0  0  0  0  0  0  0  0  0  0  0
    0.6648   -2.0637   -0.0639 H   0  0  0  0  0  0  0  0  0  0  0  0
   -0.0791   -0.4388    0.0746 H   0  0  0  0  0  0  0  0  0  0  0  0
    0.6416   -1.2147    1.5135 H   0  0  0  0  0  0  0  0  0  0  0  0
    2.8991   -1.1419    0.4032 H   0  0  0  0  0  0  0  0  0  0  0  0
    3.3088   -1.2020   -4.1605 H   0  0  0  0  0  0  0  0  0  0  0  0
    3.9883    0.2631   -3.4035 H   0  0  0  0  0  0  0  0  0  0  0  0
    1.1478    3.5864   -4.3601 H   0  0  0  0  0  0  0  0  0  0  0  0
    0.0746    2.6040   -3.3220 H   0  0  0  0  0  0  0  0  0  0  0  0
   -1.7108    0.8557   -6.5593 H   0  0  0  0  0  0  0  0  0  0  0  0
   -2.1282   -1.6250   -6.5844 H   0  0  0  0  0  0  0  0  0  0  0  0
   -0.6140   -3.1388   -5.2940 H   0  0  0  0  0  0  0  0  0  0  0  0
    1.2923   -2.2108   -4.0295 H   0  0  0  0  0  0  0  0  0  0  0  0
    2.8088    1.8196   -0.7555 H   0  0  0  0  0  0  0  0  0  0  0  0
    3.3663    3.9599   -1.2636 H   0  0  0  0  0  0  0  0  0  0  0  0
    3.9098    6.2846   -0.5169 H   0  0  0  0  0  0  0  0  0  0  0  0
    5.0404    8.9368    3.3730 H   0  0  0  0  0  0  0  0  0  0  0  0
    3.8266   10.4730    4.9354 H   0  0  0  0  0  0  0  0  0  0  0  0
    1.3543   10.2515    5.2304 H   0  0  0  0  0  0  0  0  0  0  0  0
    0.1160    8.5042    3.9478 H   0  0  0  0  0  0  0  0  0  0  0  0
    1.3262    6.9912    2.3927 H   0  0  0  0  0  0  0  0  0  0  0  0
    3.2639    5.1192    3.5728 H   0  0  0  0  0  0  0  0  0  0  0  0
    2.7103    2.8054    2.8377 H   0  0  0  0  0  0  0  0  0  0  0  0
  1  2  1  0
  1 34  1  0
  1 35  1  0
  1 36  1  0
  2  3  1  0
  2 18  1  0
  2 37  1  1
  3  4  1  0
  4  5  2  0
  4  6  1  0
  6  7  1  0
  6 38  1  0
  6 39  1  0
  7  8  1  0
  7 17  1  0
  8  9  2  0
  8 10  1  0
 10 11  1  0
 10 40  1  0
 10 41  1  0
 11 12  1  0
 12 13  2  0
 12 17  1  0
 13 14  1  0
 13 42  1  0
 14 15  2  0
 14 43  1  0
 15 16  1  0
 15 44  1  0
 16 17  2  0
 16 45  1  0
 18 19  2  0
 18 20  1  0
 20 21  1  0
 20 46  1  0
 21 22  2  0
 21 33  1  0
 22 23  1  0
 22 47  1  0
 23 24  2  0
 23 48  1  0
 24 25  1  0
 24 32  1  0
 25 26  1  0
 26 27  2  0
 26 31  1  0
 27 28  1  0
 27 49  1  0
 28 29  2  0
 28 50  1  0
 29 30  1  0
 29 51  1  0
 30 31  2  0
 30 52  1  0
 31 53  1  0
 32 33  2  0
 32 54  1  0
 33 55  1  0
M  END

