
     RDKit          3D

 42 44  0  0  0  0  0  0  0  0999 V2000
    1.9935   -1.6292    0.9340 C   0  0  0  0  0  0  0  0  0  0  0  0
    3.0510   -0.6810    0.3571 C   0  0  1  0  0  0  0  0  0  0  0  0
    4.1946   -0.4726    1.3557 C   0  0  0  0  0  0  0  0  0  0  0  0
    3.6275   -1.2149   -0.9771 C   0  0  0  0  0  0  0  0  0  0  0  0
    2.6535   -1.3331   -2.0448 N   0  0  0  0  0  0  0  0  0  0  0  0
    2.2159   -2.5357   -2.5797 C   0  0  0  0  0  0  0  0  0  0  0  0
    2.6948   -3.7973   -2.1354 C   0  0  0  0  0  0  0  0  0  0  0  0
    2.2194   -4.9659   -2.7268 C   0  0  0  0  0  0  0  0  0  0  0  0
    2.6872   -6.3187   -2.2291 C   0  0  0  0  0  0  0  0  0  0  0  0
    2.7606   -7.3107   -3.2892 N   0  0  0  0  0  0  0  0  0  0  0  0
    3.1129   -8.6315   -2.8574 C   0  0  1  0  0  0  0  0  0  0  0  0
    1.9999   -9.5543   -2.4253 C   0  0  0  0  0  0  0  0  0  0  0  0
    2.7124   -9.7865   -3.7344 C   0  0  0  0  0  0  0  0  0  0  0  0
    1.2743   -4.8611   -3.7616 C   0  0  0  0  0  0  0  0  0  0  0  0
    0.8626   -3.5832   -4.1292 C   0  0  0  0  0  0  0  0  0  0  0  0
    1.3068   -2.4602   -3.5659 N   0  0  0  0  0  0  0  0  0  0  0  0
    2.1207   -0.0623   -2.5213 C   0  0  0  0  0  0  0  0  0  0  0  0
    1.3241    0.6626   -1.4374 C   0  0  0  0  0  0  0  0  0  0  0  0
    2.3247    1.0123    0.0599 S   0  0  0  0  0  0  0  0  0  0  0  0
    2.4382   -2.6163    1.1512 H   0  0  0  0  0  0  0  0  0  0  0  0
    1.1608   -1.7895    0.2338 H   0  0  0  0  0  0  0  0  0  0  0  0
    1.5798   -1.2247    1.8696 H   0  0  0  0  0  0  0  0  0  0  0  0
    4.6686   -1.4390    1.5979 H   0  0  0  0  0  0  0  0  0  0  0  0
    3.8230   -0.0364    2.2961 H   0  0  0  0  0  0  0  0  0  0  0  0
    4.9662    0.1996    0.9495 H   0  0  0  0  0  0  0  0  0  0  0  0
    4.1048   -2.1856   -0.7881 H   0  0  0  0  0  0  0  0  0  0  0  0
    4.4292   -0.5261   -1.3015 H   0  0  0  0  0  0  0  0  0  0  0  0
    3.4303   -3.8775   -1.3355 H   0  0  0  0  0  0  0  0  0  0  0  0
    1.9624   -6.6881   -1.4798 H   0  0  0  0  0  0  0  0  0  0  0  0
    3.6457   -6.1907   -1.6784 H   0  0  0  0  0  0  0  0  0  0  0  0
    3.3868   -6.9936   -4.0293 H   0  0  0  0  0  0  0  0  0  0  0  0
    4.0651   -8.7440   -2.3093 H   0  0  0  0  0  0  0  0  0  0  0  0
    0.9844   -9.1519   -2.4723 H   0  0  0  0  0  0  0  0  0  0  0  0
    2.1871  -10.2424   -1.5962 H   0  0  0  0  0  0  0  0  0  0  0  0
    2.1710   -9.5384   -4.6512 H   0  0  0  0  0  0  0  0  0  0  0  0
    3.3960  -10.6359   -3.8180 H   0  0  0  0  0  0  0  0  0  0  0  0
    0.8870   -5.7534   -4.2535 H   0  0  0  0  0  0  0  0  0  0  0  0
    0.1239   -3.4552   -4.9306 H   0  0  0  0  0  0  0  0  0  0  0  0
    1.4792   -0.2737   -3.3852 H   0  0  0  0  0  0  0  0  0  0  0  0
    2.9588    0.5813   -2.8482 H   0  0  0  0  0  0  0  0  0  0  0  0
    0.4250    0.0855   -1.1687 H   0  0  0  0  0  0  0  0  0  0  0  0
    0.9933    1.6489   -1.7987 H   0  0  0  0  0  0  0  0  0  0  0  0
  2  1  1  1
  1 20  1  0
  1 21  1  0
  1 22  1  0
  2  3  1  0
  2  4  1  0
  2 19  1  0
  3 23  1  0
  3 24  1  0
  3 25  1  0
  4  5  1  0
  4 26  1  0
  4 27  1  0
  5  6  1  0
  5 17  1  0
  6  7  2  0
  6 16  1  0
  7  8  1  0
  7 28  1  0
  8  9  1  0
  8 14  2  0
  9 10  1  0
  9 29  1  0
  9 30  1  0
 10 11  1  0
 10 31  1  0
 11 12  1  0
 11 13  1  0
 11 32  1  1
 12 13  1  0
 12 33  1  0
 12 34  1  0
 13 35  1  0
 13 36  1  0
 14 15  1  0
 14 37  1  0
 15 16  2  0
 15 38  1  0
 17 18  1  0
 17 39  1  0
 17 40  1  0
 18 19  1  0
 18 41  1  0
 18 42  1  0
M  END

