
     RDKit          3D

 40 41  0  0  0  0  0  0  0  0999 V2000
    3.7300    0.6907    2.6359 N   0  0  0  0  0  0  0  0  0  0  0  0
    4.7571    0.9483    2.1641 C   0  0  0  0  0  0  0  0  0  0  0  0
    6.0566    1.1896    1.5462 C   0  0  0  0  0  0  0  0  0  0  0  0
    6.7550   -0.0349    0.9058 C   0  0  0  0  0  0  0  0  0  0  0  0
    7.8436    0.1181    0.3956 O   0  0  0  0  0  0  0  0  0  0  0  0
    6.0600   -1.2136    0.9740 N   0  0  0  0  0  0  0  0  0  0  0  0
    6.4317   -2.4784    0.4862 C   0  0  0  0  0  0  0  0  0  0  0  0
    7.6446   -2.7214   -0.1863 C   0  0  0  0  0  0  0  0  0  0  0  0
    7.9290   -4.0071   -0.6372 C   0  0  0  0  0  0  0  0  0  0  0  0
    7.0315   -5.0673   -0.4329 C   0  0  0  0  0  0  0  0  0  0  0  0
    7.3980   -6.4120   -0.9381 C   0  0  0  0  0  0  0  0  0  0  0  0
    8.4361   -6.6668   -1.5229 O   0  0  0  0  0  0  0  0  0  0  0  0
    6.4572   -7.3411   -0.6899 O   0  0  0  0  0  0  0  0  0  0  0  0
    6.7502   -8.7135   -0.9967 C   0  0  0  0  0  0  0  0  0  0  0  0
    6.4376   -9.1042   -2.4534 C   0  0  0  0  0  0  0  0  0  0  0  0
    5.5493   -9.8991   -2.7014 O   0  0  0  0  0  0  0  0  0  0  0  0
    7.2542   -8.5063   -3.3756 N   0  0  0  0  0  0  0  0  0  0  0  0
    7.2217   -8.6201   -4.7772 C   0  0  0  0  0  0  0  0  0  0  0  0
    6.3266   -9.4556   -5.4689 C   0  0  0  0  0  0  0  0  0  0  0  0
    6.3662   -9.5058   -6.8651 C   0  0  0  0  0  0  0  0  0  0  0  0
    7.2805   -8.7413   -7.5799 C   0  0  0  0  0  0  0  0  0  0  0  0
    7.3229   -8.7874   -8.9161 F   0  0  0  0  0  0  0  0  0  0  0  0
    8.1702   -7.9113   -6.8908 C   0  0  0  0  0  0  0  0  0  0  0  0
    9.0481   -7.1758   -7.5794 F   0  0  0  0  0  0  0  0  0  0  0  0
    8.1458   -7.8455   -5.5046 C   0  0  0  0  0  0  0  0  0  0  0  0
    5.8229   -4.8187    0.2402 C   0  0  0  0  0  0  0  0  0  0  0  0
    5.5274   -3.5392    0.6928 C   0  0  0  0  0  0  0  0  0  0  0  0
    6.7562    1.6008    2.2914 H   0  0  0  0  0  0  0  0  0  0  0  0
    5.9604    1.9513    0.7557 H   0  0  0  0  0  0  0  0  0  0  0  0
    5.1560   -1.1802    1.4368 H   0  0  0  0  0  0  0  0  0  0  0  0
    8.3434   -1.9042   -0.3462 H   0  0  0  0  0  0  0  0  0  0  0  0
    8.8655   -4.2082   -1.1607 H   0  0  0  0  0  0  0  0  0  0  0  0
    6.0852   -9.3089   -0.3623 H   0  0  0  0  0  0  0  0  0  0  0  0
    7.8043   -8.9248   -0.7564 H   0  0  0  0  0  0  0  0  0  0  0  0
    7.9592   -7.8789   -2.9852 H   0  0  0  0  0  0  0  0  0  0  0  0
    5.6126  -10.0543   -4.9094 H   0  0  0  0  0  0  0  0  0  0  0  0
    5.6795  -10.1486   -7.4201 H   0  0  0  0  0  0  0  0  0  0  0  0
    8.8538   -7.1824   -5.0025 H   0  0  0  0  0  0  0  0  0  0  0  0
    5.1170   -5.6334    0.4039 H   0  0  0  0  0  0  0  0  0  0  0  0
    4.5840   -3.3534    1.2142 H   0  0  0  0  0  0  0  0  0  0  0  0
  1  2  3  0
  2  3  1  0
  3  4  1  0
  3 28  1  0
  3 29  1  0
  4  5  2  0
  4  6  1  0
  6  7  1  0
  6 30  1  0
  7  8  2  0
  7 27  1  0
  8  9  1  0
  8 31  1  0
  9 10  2  0
  9 32  1  0
 10 11  1  0
 10 26  1  0
 11 12  2  0
 11 13  1  0
 13 14  1  0
 14 15  1  0
 14 33  1  0
 14 34  1  0
 15 16  2  0
 15 17  1  0
 17 18  1  0
 17 35  1  0
 18 19  2  0
 18 25  1  0
 19 20  1  0
 19 36  1  0
 20 21  2  0
 20 37  1  0
 21 22  1  0
 21 23  1  0
 23 24  1  0
 23 25  2  0
 25 38  1  0
 26 27  2  0
 26 39  1  0
 27 40  1  0
M  END

