
     RDKit          3D

 53 56  0  0  0  0  0  0  0  0999 V2000
    1.6561    0.1849   -0.7801 C   0  0  0  0  0  0  0  0  0  0  0  0
    3.0737   -0.1704   -0.4664 C   0  0  0  0  0  0  0  0  0  0  0  0
    4.0138    0.7608   -0.3407 N   0  0  0  0  0  0  0  0  0  0  0  0
    5.1570    0.1084   -0.0428 N   0  0  0  0  0  0  0  0  0  0  0  0
    6.3897    0.8653    0.1017 C   0  0  0  0  0  0  0  0  0  0  0  0
    7.2173    0.9593   -1.1691 C   0  0  0  0  0  0  0  0  0  0  0  0
    6.6228    1.3460   -2.3807 C   0  0  0  0  0  0  0  0  0  0  0  0
    7.3822    1.4610   -3.5457 C   0  0  0  0  0  0  0  0  0  0  0  0
    8.7543    1.1913   -3.5013 C   0  0  0  0  0  0  0  0  0  0  0  0
    9.7976    1.3478   -5.0901 Br  0  0  0  0  0  0  0  0  0  0  0  0
    9.3678    0.8071   -2.3078 C   0  0  0  0  0  0  0  0  0  0  0  0
    8.5920    0.6915   -1.1498 C   0  0  0  0  0  0  0  0  0  0  0  0
    4.9931   -1.2445    0.0060 C   0  0  0  0  0  0  0  0  0  0  0  0
    6.0921   -2.2134    0.2944 C   0  0  0  0  0  0  0  0  0  0  0  0
    3.6427   -1.4599   -0.2561 C   0  0  0  0  0  0  0  0  0  0  0  0
    2.9959   -2.7133   -0.2590 N   0  0  0  0  0  0  0  0  0  0  0  0
    2.2432   -3.2049   -1.2804 C   0  0  0  0  0  0  0  0  0  0  0  0
    2.0049   -2.6136   -2.3267 O   0  0  0  0  0  0  0  0  0  0  0  0
    1.7035   -4.5834   -1.0297 C   0  0  0  0  0  0  0  0  0  0  0  0
    2.0537   -5.2649    0.0383 N   0  0  0  0  0  0  0  0  0  0  0  0
    1.4207   -6.4766   -0.0626 O   0  0  0  0  0  0  0  0  0  0  0  0
    0.6874   -6.5254   -1.1935 C   0  0  0  0  0  0  0  0  0  0  0  0
   -0.0583   -7.7810   -1.4781 C   0  0  0  0  0  0  0  0  0  0  0  0
    0.8141   -5.3318   -1.8622 C   0  0  0  0  0  0  0  0  0  0  0  0
    0.1903   -4.9217   -3.1654 C   0  0  0  0  0  0  0  0  0  0  0  0
    0.9745   -5.3358   -4.3290 N   0  0  0  0  0  0  0  0  0  0  0  0
    1.9424   -4.6212   -4.9767 C   0  0  0  0  0  0  0  0  0  0  0  0
    2.4576   -5.4508   -5.9565 C   0  0  0  0  0  0  0  0  0  0  0  0
    1.7216   -6.6435   -5.7871 C   0  0  0  0  0  0  0  0  0  0  0  0
    1.8630   -7.8631   -6.5678 N   0  0  0  0  0  0  0  0  0  0  0  0
    2.6901   -7.8290   -7.4689 O   0  0  0  0  0  0  0  0  0  0  0  0
    1.1664   -8.8178   -6.2760 O   0  0  0  0  0  0  0  0  0  0  0  0
    0.8336   -6.5713   -4.8042 N   0  0  0  0  0  0  0  0  0  0  0  0
    1.5383    1.2772   -0.7814 H   0  0  0  0  0  0  0  0  0  0  0  0
    0.9640   -0.2423   -0.0353 H   0  0  0  0  0  0  0  0  0  0  0  0
    1.3638   -0.2171   -1.7625 H   0  0  0  0  0  0  0  0  0  0  0  0
    6.9893    0.4206    0.9100 H   0  0  0  0  0  0  0  0  0  0  0  0
    6.0819    1.8687    0.4328 H   0  0  0  0  0  0  0  0  0  0  0  0
    5.5508    1.5571   -2.4084 H   0  0  0  0  0  0  0  0  0  0  0  0
    6.9127    1.7613   -4.4840 H   0  0  0  0  0  0  0  0  0  0  0  0
   10.4380    0.5956   -2.2817 H   0  0  0  0  0  0  0  0  0  0  0  0
    9.0752    0.3880   -0.2162 H   0  0  0  0  0  0  0  0  0  0  0  0
    6.9426   -2.0803   -0.3935 H   0  0  0  0  0  0  0  0  0  0  0  0
    5.7243   -3.2422    0.1741 H   0  0  0  0  0  0  0  0  0  0  0  0
    6.4782   -2.1137    1.3236 H   0  0  0  0  0  0  0  0  0  0  0  0
    3.1201   -3.3360    0.5362 H   0  0  0  0  0  0  0  0  0  0  0  0
    0.4916   -8.6450   -1.0777 H   0  0  0  0  0  0  0  0  0  0  0  0
   -0.1789   -7.9089   -2.5630 H   0  0  0  0  0  0  0  0  0  0  0  0
   -1.0551   -7.7690   -1.0058 H   0  0  0  0  0  0  0  0  0  0  0  0
    0.0971   -3.8308   -3.2019 H   0  0  0  0  0  0  0  0  0  0  0  0
   -0.8033   -5.3741   -3.2827 H   0  0  0  0  0  0  0  0  0  0  0  0
    2.1850   -3.6069   -4.6661 H   0  0  0  0  0  0  0  0  0  0  0  0
    3.2342   -5.2508   -6.6875 H   0  0  0  0  0  0  0  0  0  0  0  0
  1  2  1  0
  1 34  1  0
  1 35  1  0
  1 36  1  0
  2  3  2  0
  2 15  1  0
  3  4  1  0
  4  5  1  0
  4 13  1  0
  5  6  1  0
  5 37  1  0
  5 38  1  0
  6  7  2  0
  6 12  1  0
  7  8  1  0
  7 39  1  0
  8  9  2  0
  8 40  1  0
  9 10  1  0
  9 11  1  0
 11 12  2  0
 11 41  1  0
 12 42  1  0
 13 14  1  0
 13 15  2  0
 14 43  1  0
 14 44  1  0
 14 45  1  0
 15 16  1  0
 16 17  1  0
 16 46  1  0
 17 18  2  0
 17 19  1  0
 19 20  2  0
 19 24  1  0
 20 21  1  0
 21 22  1  0
 22 23  1  0
 22 24  2  0
 23 47  1  0
 23 48  1  0
 23 49  1  0
 24 25  1  0
 25 26  1  0
 25 50  1  0
 25 51  1  0
 26 27  1  0
 26 33  1  0
 27 28  2  0
 27 52  1  0
 28 29  1  0
 28 53  1  0
 29 30  1  0
 29 33  2  0
 30 31  2  0
 30 32  1  0
M  CHG  2  30   1  32  -1
M  END

