
     RDKit          3D

 29 29  0  0  0  0  0  0  0  0999 V2000
    2.2791    1.5264    0.5489 C   0  0  0  0  0  0  0  0  0  0  0  0
    2.3422    0.3801   -0.2859 O   0  0  0  0  0  0  0  0  0  0  0  0
    2.9882    0.4935   -1.4629 C   0  0  0  0  0  0  0  0  0  0  0  0
    3.0466   -0.6487   -2.2866 C   0  0  0  0  0  0  0  0  0  0  0  0
    3.7046   -0.5619   -3.5034 C   0  0  0  0  0  0  0  0  0  0  0  0
    4.2917    0.6680   -3.8721 C   0  0  0  0  0  0  0  0  0  0  0  0
    4.9844    0.8785   -5.0783 N   0  0  0  0  0  0  0  0  0  0  0  0
    5.2179   -0.0074   -6.0864 C   0  0  0  0  0  0  0  0  0  0  0  0
    4.8608   -1.1717   -6.1246 O   0  0  0  0  0  0  0  0  0  0  0  0
    6.0128    0.5742   -7.2580 C   0  0  0  0  0  0  0  0  0  0  0  0
    6.3281    1.9314   -7.0440 O   0  0  0  0  0  0  0  0  0  0  0  0
    7.0748    2.5347   -8.0589 C   0  0  0  0  0  0  0  0  0  0  0  0
    7.3236    3.9842   -7.6790 C   0  0  1  0  0  0  0  0  0  0  0  0
    8.0043    4.0840   -6.5299 F   0  0  0  0  0  0  0  0  0  0  0  0
    8.0437    4.5801   -8.6432 F   0  0  0  0  0  0  0  0  0  0  0  0
    6.1775    4.6620   -7.5371 F   0  0  0  0  0  0  0  0  0  0  0  0
    4.1713    1.7358   -2.9753 C   0  0  0  0  0  0  0  0  0  0  0  0
    3.5375    1.6503   -1.8039 N   0  0  0  0  0  0  0  0  0  0  0  0
    1.7158    1.2205    1.4405 H   0  0  0  0  0  0  0  0  0  0  0  0
    1.7666    2.3623    0.0465 H   0  0  0  0  0  0  0  0  0  0  0  0
    3.2855    1.8697    0.8376 H   0  0  0  0  0  0  0  0  0  0  0  0
    2.5764   -1.5759   -1.9555 H   0  0  0  0  0  0  0  0  0  0  0  0
    3.7771   -1.4154   -4.1748 H   0  0  0  0  0  0  0  0  0  0  0  0
    5.3649    1.8089   -5.2313 H   0  0  0  0  0  0  0  0  0  0  0  0
    5.4029    0.4370   -8.1720 H   0  0  0  0  0  0  0  0  0  0  0  0
    6.9255   -0.0416   -7.3767 H   0  0  0  0  0  0  0  0  0  0  0  0
    6.5435    2.5251   -9.0300 H   0  0  0  0  0  0  0  0  0  0  0  0
    8.0586    2.0469   -8.1996 H   0  0  0  0  0  0  0  0  0  0  0  0
    4.6137    2.7099   -3.2237 H   0  0  0  0  0  0  0  0  0  0  0  0
  1  2  1  0
  1 19  1  0
  1 20  1  0
  1 21  1  0
  2  3  1  0
  3  4  2  0
  3 18  1  0
  4  5  1  0
  4 22  1  0
  5  6  2  0
  5 23  1  0
  6  7  1  0
  6 17  1  0
  7  8  1  0
  7 24  1  0
  8  9  2  0
  8 10  1  0
 10 11  1  0
 10 25  1  0
 10 26  1  0
 11 12  1  0
 12 13  1  0
 12 27  1  0
 12 28  1  0
 13 14  1  1
 13 15  1  0
 13 16  1  0
 17 18  2  0
 17 29  1  0
M  END

