
     RDKit          3D

 46 46  0  0  0  0  0  0  0  0999 V2000
    1.5998    0.8579   -0.4297 C   0  0  0  0  0  0  0  0  0  0  0  0
    2.8091    1.5773   -0.2953 O   0  0  0  0  0  0  0  0  0  0  0  0
    3.6485    1.2735    0.7188 C   0  0  0  0  0  0  0  0  0  0  0  0
    4.8453    2.0167    0.7811 C   0  0  0  0  0  0  0  0  0  0  0  0
    5.7645    1.7794    1.7920 C   0  0  0  0  0  0  0  0  0  0  0  0
    5.5273    0.8144    2.7891 C   0  0  0  0  0  0  0  0  0  0  0  0
    6.5919    0.6918    3.8536 C   0  0  0  0  0  0  0  0  0  0  0  0
    7.7793    0.7341    3.5716 O   0  0  0  0  0  0  0  0  0  0  0  0
    6.1475    0.5803    5.1454 N   0  0  0  0  0  0  0  0  0  0  0  0
    7.0715    0.5327    6.2715 C   0  0  0  0  0  0  0  0  0  0  0  0
    7.5227    1.9072    6.7841 C   0  0  0  0  0  0  0  0  0  0  0  0
    6.3960    2.7814    7.3412 C   0  0  0  0  0  0  0  0  0  0  0  0
    6.8751    4.1403    7.8607 C   0  0  0  0  0  0  0  0  0  0  0  0
    5.7520    5.0245    8.4102 C   0  0  0  0  0  0  0  0  0  0  0  0
    6.2426    6.3785    8.9289 C   0  0  0  0  0  0  0  0  0  0  0  0
    5.1213    7.2595    9.4746 C   0  0  0  0  0  0  0  0  0  0  0  0
    5.6053    8.6069    9.9968 C   0  0  0  0  0  0  0  0  0  0  0  0
    6.7489    8.9683    9.9974 O   0  0  0  0  0  0  0  0  0  0  0  0
    4.6331    9.4167   10.4851 O   0  0  0  0  0  0  0  0  0  0  0  0
    4.3485    0.0416    2.7012 C   0  0  0  0  0  0  0  0  0  0  0  0
    4.0587   -1.1207    3.5934 C   0  0  0  0  0  0  0  0  0  0  0  0
    3.0162   -1.7384    3.5708 O   0  0  0  0  0  0  0  0  0  0  0  0
    3.4157    0.2819    1.6742 C   0  0  0  0  0  0  0  0  0  0  0  0
    1.0865    1.2737   -1.3066 H   0  0  0  0  0  0  0  0  0  0  0  0
    0.9531    0.9774    0.4573 H   0  0  0  0  0  0  0  0  0  0  0  0
    1.7815   -0.2186   -0.5952 H   0  0  0  0  0  0  0  0  0  0  0  0
    5.0267    2.7734    0.0150 H   0  0  0  0  0  0  0  0  0  0  0  0
    6.6958    2.3477    1.8319 H   0  0  0  0  0  0  0  0  0  0  0  0
    5.1646    0.7376    5.3303 H   0  0  0  0  0  0  0  0  0  0  0  0
    7.9510   -0.0374    5.9406 H   0  0  0  0  0  0  0  0  0  0  0  0
    6.5866   -0.0368    7.0824 H   0  0  0  0  0  0  0  0  0  0  0  0
    8.0405    2.4320    5.9634 H   0  0  0  0  0  0  0  0  0  0  0  0
    8.2812    1.7405    7.5698 H   0  0  0  0  0  0  0  0  0  0  0  0
    5.8793    2.2403    8.1569 H   0  0  0  0  0  0  0  0  0  0  0  0
    5.6352    2.9470    6.5561 H   0  0  0  0  0  0  0  0  0  0  0  0
    7.3971    4.6770    7.0476 H   0  0  0  0  0  0  0  0  0  0  0  0
    7.6337    3.9831    8.6494 H   0  0  0  0  0  0  0  0  0  0  0  0
    5.2279    4.4862    9.2223 H   0  0  0  0  0  0  0  0  0  0  0  0
    4.9944    5.1841    7.6200 H   0  0  0  0  0  0  0  0  0  0  0  0
    6.7654    6.9250    8.1263 H   0  0  0  0  0  0  0  0  0  0  0  0
    6.9955    6.2308    9.7210 H   0  0  0  0  0  0  0  0  0  0  0  0
    4.5862    6.7471   10.2967 H   0  0  0  0  0  0  0  0  0  0  0  0
    4.3581    7.4485    8.6960 H   0  0  0  0  0  0  0  0  0  0  0  0
    3.7682    8.9879   10.4164 H   0  0  0  0  0  0  0  0  0  0  0  0
    4.8790   -1.4202    4.2853 H   0  0  0  0  0  0  0  0  0  0  0  0
    2.5317   -0.3551    1.6531 H   0  0  0  0  0  0  0  0  0  0  0  0
  1  2  1  0
  1 24  1  0
  1 25  1  0
  1 26  1  0
  2  3  1  0
  3  4  2  0
  3 23  1  0
  4  5  1  0
  4 27  1  0
  5  6  2  0
  5 28  1  0
  6  7  1  0
  6 20  1  0
  7  8  2  0
  7  9  1  0
  9 10  1  0
  9 29  1  0
 10 11  1  0
 10 30  1  0
 10 31  1  0
 11 12  1  0
 11 32  1  0
 11 33  1  0
 12 13  1  0
 12 34  1  0
 12 35  1  0
 13 14  1  0
 13 36  1  0
 13 37  1  0
 14 15  1  0
 14 38  1  0
 14 39  1  0
 15 16  1  0
 15 40  1  0
 15 41  1  0
 16 17  1  0
 16 42  1  0
 16 43  1  0
 17 18  2  0
 17 19  1  0
 19 44  1  0
 20 21  1  0
 20 23  2  0
 21 22  2  0
 21 45  1  0
 23 46  1  0
M  END

