
     RDKit          3D

 40 42  0  0  0  0  0  0  0  0999 V2000
    8.0988    0.4305    2.9661 N   0  0  0  0  0  0  0  0  0  0  0  0
    6.8198    1.0043    3.0812 C   0  0  0  0  0  0  0  0  0  0  0  0
    6.5086    1.6219    4.0879 O   0  0  0  0  0  0  0  0  0  0  0  0
    5.9140    0.8377    1.9337 C   0  0  0  0  0  0  0  0  0  0  0  0
    6.3100    0.6272    0.6338 C   0  0  0  0  0  0  0  0  0  0  0  0
    7.5937    0.3866    0.1938 N   0  0  0  0  0  0  0  0  0  0  0  0
    5.3585    0.6550   -0.3748 N   0  0  0  0  0  0  0  0  0  0  0  0
    4.1007    1.2260   -0.2505 C   0  0  0  0  0  0  0  0  0  0  0  0
    3.1384    1.4591   -1.5924 S   0  0  0  0  0  0  0  0  0  0  0  0
    3.7812    1.5880    1.0058 N   0  0  0  0  0  0  0  0  0  0  0  0
    4.4457    1.0690    2.2120 C   0  0  1  0  0  0  0  0  0  0  0  0
    3.6833   -0.1417    2.7675 C   0  0  0  0  0  0  0  0  0  0  0  0
    4.2248   -1.4240    2.8444 C   0  0  0  0  0  0  0  0  0  0  0  0
    3.5060   -2.5237    3.3537 C   0  0  0  0  0  0  0  0  0  0  0  0
    4.1199   -3.8759    3.4238 C   0  0  0  0  0  0  0  0  0  0  0  0
    5.4736   -4.0437    3.7744 C   0  0  0  0  0  0  0  0  0  0  0  0
    6.0582   -5.3092    3.8423 C   0  0  0  0  0  0  0  0  0  0  0  0
    5.2792   -6.4285    3.5589 C   0  0  0  0  0  0  0  0  0  0  0  0
    5.8338   -7.6485    3.6231 F   0  0  0  0  0  0  0  0  0  0  0  0
    3.9362   -6.3062    3.2107 C   0  0  0  0  0  0  0  0  0  0  0  0
    3.3678   -5.0333    3.1441 C   0  0  0  0  0  0  0  0  0  0  0  0
    2.1928   -2.2947    3.7945 C   0  0  0  0  0  0  0  0  0  0  0  0
    1.6246   -1.0216    3.7277 C   0  0  0  0  0  0  0  0  0  0  0  0
    2.3614    0.0509    3.2188 C   0  0  0  0  0  0  0  0  0  0  0  0
    1.8491    1.3129    3.1233 O   0  0  0  0  0  0  0  0  0  0  0  0
    8.6251    0.5149    3.8334 H   0  0  0  0  0  0  0  0  0  0  0  0
    8.1286   -0.5109    2.5799 H   0  0  0  0  0  0  0  0  0  0  0  0
    8.3138    0.6072    0.8802 H   0  0  0  0  0  0  0  0  0  0  0  0
    7.8046    0.7268   -0.7400 H   0  0  0  0  0  0  0  0  0  0  0  0
    5.6073    0.3942   -1.3224 H   0  0  0  0  0  0  0  0  0  0  0  0
    2.8489    1.9702    1.1283 H   0  0  0  0  0  0  0  0  0  0  0  0
    4.3876    1.8585    2.9759 H   0  0  0  0  0  0  0  0  0  0  0  0
    5.2409   -1.5740    2.4744 H   0  0  0  0  0  0  0  0  0  0  0  0
    6.0760   -3.1677    4.0259 H   0  0  0  0  0  0  0  0  0  0  0  0
    7.1047   -5.4424    4.1242 H   0  0  0  0  0  0  0  0  0  0  0  0
    3.3567   -7.2037    2.9854 H   0  0  0  0  0  0  0  0  0  0  0  0
    2.3218   -4.9364    2.8448 H   0  0  0  0  0  0  0  0  0  0  0  0
    1.6095   -3.1143    4.2199 H   0  0  0  0  0  0  0  0  0  0  0  0
    0.6026   -0.8574    4.0840 H   0  0  0  0  0  0  0  0  0  0  0  0
    0.9488    1.3320    3.4736 H   0  0  0  0  0  0  0  0  0  0  0  0
  1  2  1  0
  1 26  1  0
  1 27  1  0
  2  3  2  0
  2  4  1  0
  4  5  2  0
  4 11  1  0
  5  6  1  0
  5  7  1  0
  6 28  1  0
  6 29  1  0
  7  8  1  0
  7 30  1  0
  8  9  2  0
  8 10  1  0
 10 11  1  0
 10 31  1  0
 11 12  1  0
 11 32  1  1
 12 13  2  0
 12 24  1  0
 13 14  1  0
 13 33  1  0
 14 15  1  0
 14 22  2  0
 15 16  2  0
 15 21  1  0
 16 17  1  0
 16 34  1  0
 17 18  2  0
 17 35  1  0
 18 19  1  0
 18 20  1  0
 20 21  2  0
 20 36  1  0
 21 37  1  0
 22 23  1  0
 22 38  1  0
 23 24  2  0
 23 39  1  0
 24 25  1  0
 25 40  1  0
M  END

