
     RDKit          3D

 75 80  0  0  0  0  0  0  0  0999 V2000
    1.2495   -0.0369    4.3327 O   0  0  0  0  0  0  0  0  0  0  0  0
    0.4312   -0.7434    3.7958 C   0  0  0  0  0  0  0  0  0  0  0  0
   -0.6109   -0.1899    3.1362 O   0  0  0  0  0  0  0  0  0  0  0  0
    0.4584   -2.2265    3.7937 C   0  0  0  0  0  0  0  0  0  0  0  0
   -0.5754   -3.0912    3.4576 C   0  0  0  0  0  0  0  0  0  0  0  0
   -0.0955   -4.4192    3.6437 C   0  0  0  0  0  0  0  0  0  0  0  0
   -0.6608   -5.7014    3.4719 C   0  0  0  0  0  0  0  0  0  0  0  0
    0.1019   -6.8295    3.7461 C   0  0  0  0  0  0  0  0  0  0  0  0
   -0.4965   -8.2155    3.5993 C   0  0  0  0  0  0  0  0  0  0  0  0
    0.2847   -9.1131    2.7535 N   0  0  0  0  0  0  0  0  0  0  0  0
    0.8876  -10.2954    3.1346 C   0  0  0  0  0  0  0  0  0  0  0  0
    1.4975  -10.7843    1.9998 C   0  0  0  0  0  0  0  0  0  0  0  0
    1.2856   -9.9380    0.9416 N   0  0  0  0  0  0  0  0  0  0  0  0
    0.5614   -8.9523    1.4221 C   0  0  0  0  0  0  0  0  0  0  0  0
    1.4453   -6.6831    4.1899 C   0  0  0  0  0  0  0  0  0  0  0  0
    2.0313   -5.4399    4.3683 C   0  0  0  0  0  0  0  0  0  0  0  0
    1.2499   -4.2991    4.0994 C   0  0  0  0  0  0  0  0  0  0  0  0
    1.5647   -2.9630    4.2007 N   0  0  0  0  0  0  0  0  0  0  0  0
    2.8763   -2.4534    4.6023 C   0  0  0  0  0  0  0  0  0  0  0  0
    3.7923   -2.1111    3.4243 C   0  0  0  0  0  0  0  0  0  0  0  0
    5.2148   -1.7694    3.8881 C   0  0  0  0  0  0  0  0  0  0  0  0
    5.8745   -2.8917    4.5545 N   0  0  0  0  0  0  0  0  0  0  0  0
    6.4601   -3.8869    3.6496 C   0  0  0  0  0  0  0  0  0  0  0  0
    7.8479   -3.4796    3.1216 C   0  0  0  0  0  0  0  0  0  0  0  0
    8.8060   -3.1500    4.1843 N   0  0  0  0  0  0  0  0  0  0  0  0
    9.4314   -4.2842    4.8820 C   0  0  1  0  0  0  0  0  0  0  0  0
    9.9668   -5.3337    3.9037 C   0  0  0  0  0  0  0  0  0  0  0  0
   10.8480   -4.9856    2.8664 C   0  0  0  0  0  0  0  0  0  0  0  0
   11.3536   -5.9592    2.0037 C   0  0  0  0  0  0  0  0  0  0  0  0
   10.9935   -7.3024    2.1648 C   0  0  0  0  0  0  0  0  0  0  0  0
   10.1199   -7.6607    3.1931 C   0  0  0  0  0  0  0  0  0  0  0  0
    9.6106   -6.6808    4.0527 C   0  0  0  0  0  0  0  0  0  0  0  0
   10.5709   -3.8186    5.7965 C   0  0  0  0  0  0  0  0  0  0  0  0
   10.8066   -4.4839    7.0080 C   0  0  0  0  0  0  0  0  0  0  0  0
   11.8774   -4.1224    7.8309 C   0  0  0  0  0  0  0  0  0  0  0  0
   12.7296   -3.0809    7.4544 C   0  0  0  0  0  0  0  0  0  0  0  0
   12.4990   -2.4046    6.2520 C   0  0  0  0  0  0  0  0  0  0  0  0
   11.4301   -2.7704    5.4303 C   0  0  0  0  0  0  0  0  0  0  0  0
    8.2144   -2.1360    5.0691 C   0  0  0  0  0  0  0  0  0  0  0  0
    6.8299   -2.5394    5.6070 C   0  0  0  0  0  0  0  0  0  0  0  0
   -1.1000   -0.8679    2.6492 H   0  0  0  0  0  0  0  0  0  0  0  0
   -1.5837   -2.8117    3.1536 H   0  0  0  0  0  0  0  0  0  0  0  0
   -1.6927   -5.8025    3.1233 H   0  0  0  0  0  0  0  0  0  0  0  0
   -1.5204   -8.1372    3.1998 H   0  0  0  0  0  0  0  0  0  0  0  0
   -0.5787   -8.7033    4.5835 H   0  0  0  0  0  0  0  0  0  0  0  0
    0.8202  -10.6723    4.1526 H   0  0  0  0  0  0  0  0  0  0  0  0
    2.0753  -11.7025    1.8957 H   0  0  0  0  0  0  0  0  0  0  0  0
    0.2069   -8.0852    0.8636 H   0  0  0  0  0  0  0  0  0  0  0  0
    2.0364   -7.5815    4.3865 H   0  0  0  0  0  0  0  0  0  0  0  0
    3.0668   -5.3572    4.7023 H   0  0  0  0  0  0  0  0  0  0  0  0
    3.3573   -3.2245    5.2180 H   0  0  0  0  0  0  0  0  0  0  0  0
    2.7203   -1.5652    5.2259 H   0  0  0  0  0  0  0  0  0  0  0  0
    3.3819   -1.2481    2.8754 H   0  0  0  0  0  0  0  0  0  0  0  0
    3.8156   -2.9582    2.7173 H   0  0  0  0  0  0  0  0  0  0  0  0
    5.1560   -0.9354    4.6071 H   0  0  0  0  0  0  0  0  0  0  0  0
    5.7842   -1.3776    3.0192 H   0  0  0  0  0  0  0  0  0  0  0  0
    5.7748   -4.0664    2.8058 H   0  0  0  0  0  0  0  0  0  0  0  0
    6.5399   -4.8474    4.1910 H   0  0  0  0  0  0  0  0  0  0  0  0
    7.7462   -2.5830    2.4834 H   0  0  0  0  0  0  0  0  0  0  0  0
    8.2556   -4.2736    2.4813 H   0  0  0  0  0  0  0  0  0  0  0  0
    8.7135   -4.8210    5.5368 H   0  0  0  0  0  0  0  0  0  0  0  0
   11.1313   -3.9398    2.7322 H   0  0  0  0  0  0  0  0  0  0  0  0
   12.0361   -5.6693    1.2003 H   0  0  0  0  0  0  0  0  0  0  0  0
   11.3921   -8.0640    1.4897 H   0  0  0  0  0  0  0  0  0  0  0  0
    9.8282   -8.7056    3.3274 H   0  0  0  0  0  0  0  0  0  0  0  0
    8.9228   -6.9696    4.8530 H   0  0  0  0  0  0  0  0  0  0  0  0
   10.1438   -5.2998    7.3115 H   0  0  0  0  0  0  0  0  0  0  0  0
   12.0432   -4.6545    8.7714 H   0  0  0  0  0  0  0  0  0  0  0  0
   13.5660   -2.7937    8.0968 H   0  0  0  0  0  0  0  0  0  0  0  0
   13.1558   -1.5833    5.9524 H   0  0  0  0  0  0  0  0  0  0  0  0
   11.2399   -2.2313    4.5000 H   0  0  0  0  0  0  0  0  0  0  0  0
    8.1212   -1.1984    4.4907 H   0  0  0  0  0  0  0  0  0  0  0  0
    8.8987   -1.9261    5.9038 H   0  0  0  0  0  0  0  0  0  0  0  0
    6.4096   -1.7263    6.2209 H   0  0  0  0  0  0  0  0  0  0  0  0
    6.9374   -3.4116    6.2780 H   0  0  0  0  0  0  0  0  0  0  0  0
  1  2  2  0
  2  3  1  0
  2  4  1  0
  3 41  1  0
  4  5  2  0
  4 18  1  0
  5  6  1  0
  5 42  1  0
  6  7  2  0
  6 17  1  0
  7  8  1  0
  7 43  1  0
  8  9  1  0
  8 15  2  0
  9 10  1  0
  9 44  1  0
  9 45  1  0
 10 11  1  0
 10 14  1  0
 11 12  2  0
 11 46  1  0
 12 13  1  0
 12 47  1  0
 13 14  2  0
 14 48  1  0
 15 16  1  0
 15 49  1  0
 16 17  2  0
 16 50  1  0
 17 18  1  0
 18 19  1  0
 19 20  1  0
 19 51  1  0
 19 52  1  0
 20 21  1  0
 20 53  1  0
 20 54  1  0
 21 22  1  0
 21 55  1  0
 21 56  1  0
 22 23  1  0
 22 40  1  0
 23 24  1  0
 23 57  1  0
 23 58  1  0
 24 25  1  0
 24 59  1  0
 24 60  1  0
 25 26  1  0
 25 39  1  0
 26 27  1  0
 26 33  1  0
 26 61  1  1
 27 28  2  0
 27 32  1  0
 28 29  1  0
 28 62  1  0
 29 30  2  0
 29 63  1  0
 30 31  1  0
 30 64  1  0
 31 32  2  0
 31 65  1  0
 32 66  1  0
 33 34  2  0
 33 38  1  0
 34 35  1  0
 34 67  1  0
 35 36  2  0
 35 68  1  0
 36 37  1  0
 36 69  1  0
 37 38  2  0
 37 70  1  0
 38 71  1  0
 39 40  1  0
 39 72  1  0
 39 73  1  0
 40 74  1  0
 40 75  1  0
M  END

