
     RDKit          3D

 49 50  0  0  0  0  0  0  0  0999 V2000
    6.7441    3.5134   -1.2056 C   0  0  0  0  0  0  0  0  0  0  0  0
    6.6418    1.9865   -1.3166 C   0  0  1  0  0  0  0  0  0  0  0  0
    7.5253    1.4677   -2.4593 C   0  0  0  0  0  0  0  0  0  0  0  0
    6.9648    1.3237    0.0377 C   0  0  0  0  0  0  0  0  0  0  0  0
    6.6880   -0.1809    0.1061 C   0  0  0  0  0  0  0  0  0  0  0  0
    7.0386   -0.8528    1.4455 C   0  0  1  0  0  0  0  0  0  0  0  0
    6.2170   -0.3146    2.6290 C   0  0  0  0  0  0  0  0  0  0  0  0
    6.9023   -2.2941    1.2772 N   0  0  0  0  0  0  0  0  0  0  0  0
    7.4118   -3.2410    2.1623 C   0  0  0  0  0  0  0  0  0  0  0  0
    8.4327   -2.9635    3.0890 C   0  0  0  0  0  0  0  0  0  0  0  0
    8.9551   -3.9618    3.9235 C   0  0  0  0  0  0  0  0  0  0  0  0
    8.4712   -5.2730    3.8595 C   0  0  0  0  0  0  0  0  0  0  0  0
    8.9108   -6.3224    4.6172 O   0  0  0  0  0  0  0  0  0  0  0  0
    9.9776   -6.1637    5.5328 C   0  0  1  0  0  0  0  0  0  0  0  0
    9.5862   -5.5714    6.8965 C   0  0  0  0  0  0  0  0  0  0  0  0
   10.7618   -5.9715    7.8009 C   0  0  0  0  0  0  0  0  0  0  0  0
   11.2398   -7.3542    7.2666 C   0  0  0  0  0  0  0  0  0  0  0  0
   10.5385   -7.5448    5.8998 C   0  0  0  0  0  0  0  0  0  0  0  0
    7.4454   -5.5596    2.9424 C   0  0  0  0  0  0  0  0  0  0  0  0
    6.9277   -4.5693    2.1182 C   0  0  0  0  0  0  0  0  0  0  0  0
    6.4771    4.0046   -2.1554 H   0  0  0  0  0  0  0  0  0  0  0  0
    7.7726    3.8223   -0.9503 H   0  0  0  0  0  0  0  0  0  0  0  0
    6.0752    3.9084   -0.4236 H   0  0  0  0  0  0  0  0  0  0  0  0
    5.5912    1.7384   -1.5631 H   0  0  0  0  0  0  0  0  0  0  0  0
    8.5907    1.6752   -2.2572 H   0  0  0  0  0  0  0  0  0  0  0  0
    7.2675    1.9586   -3.4117 H   0  0  0  0  0  0  0  0  0  0  0  0
    7.4200    0.3825   -2.6111 H   0  0  0  0  0  0  0  0  0  0  0  0
    6.3806    1.8397    0.8186 H   0  0  0  0  0  0  0  0  0  0  0  0
    8.0281    1.5122    0.2814 H   0  0  0  0  0  0  0  0  0  0  0  0
    7.2560   -0.7087   -0.6765 H   0  0  0  0  0  0  0  0  0  0  0  0
    5.6173   -0.3632   -0.1127 H   0  0  0  0  0  0  0  0  0  0  0  0
    8.1061   -0.6469    1.6407 H   0  0  0  0  0  0  0  0  0  0  0  0
    5.1373   -0.4357    2.4358 H   0  0  0  0  0  0  0  0  0  0  0  0
    6.4121    0.7534    2.8136 H   0  0  0  0  0  0  0  0  0  0  0  0
    6.4579   -0.8631    3.5521 H   0  0  0  0  0  0  0  0  0  0  0  0
    6.0376   -2.5751    0.8267 H   0  0  0  0  0  0  0  0  0  0  0  0
    8.8408   -1.9555    3.1743 H   0  0  0  0  0  0  0  0  0  0  0  0
    9.7408   -3.6881    4.6281 H   0  0  0  0  0  0  0  0  0  0  0  0
   10.7747   -5.5478    5.0728 H   0  0  0  0  0  0  0  0  0  0  0  0
    8.6518   -6.0627    7.2185 H   0  0  0  0  0  0  0  0  0  0  0  0
    9.3982   -4.4875    6.8752 H   0  0  0  0  0  0  0  0  0  0  0  0
   10.4834   -5.9981    8.8654 H   0  0  0  0  0  0  0  0  0  0  0  0
   11.5725   -5.2298    7.7079 H   0  0  0  0  0  0  0  0  0  0  0  0
   10.9748   -8.1676    7.9595 H   0  0  0  0  0  0  0  0  0  0  0  0
   12.3361   -7.3782    7.1675 H   0  0  0  0  0  0  0  0  0  0  0  0
    9.6799   -8.2301    5.9851 H   0  0  0  0  0  0  0  0  0  0  0  0
   11.1984   -7.9486    5.1175 H   0  0  0  0  0  0  0  0  0  0  0  0
    7.0653   -6.5824    2.8930 H   0  0  0  0  0  0  0  0  0  0  0  0
    6.1323   -4.8241    1.4109 H   0  0  0  0  0  0  0  0  0  0  0  0
  1  2  1  0
  1 21  1  0
  1 22  1  0
  1 23  1  0
  2  3  1  0
  2  4  1  0
  2 24  1  6
  3 25  1  0
  3 26  1  0
  3 27  1  0
  4  5  1  0
  4 28  1  0
  4 29  1  0
  5  6  1  0
  5 30  1  0
  5 31  1  0
  6  7  1  0
  6  8  1  0
  6 32  1  1
  7 33  1  0
  7 34  1  0
  7 35  1  0
  8  9  1  0
  8 36  1  0
  9 10  2  0
  9 20  1  0
 10 11  1  0
 10 37  1  0
 11 12  2  0
 11 38  1  0
 12 13  1  0
 12 19  1  0
 13 14  1  0
 14 15  1  0
 14 18  1  0
 14 39  1  6
 15 16  1  0
 15 40  1  0
 15 41  1  0
 16 17  1  0
 16 42  1  0
 16 43  1  0
 17 18  1  0
 17 44  1  0
 17 45  1  0
 18 46  1  0
 18 47  1  0
 19 20  2  0
 19 48  1  0
 20 49  1  0
M  END

