
     RDKit          3D

 33 35  0  0  0  0  0  0  0  0999 V2000
    0.9161    0.0007   -0.1150 C   0  0  0  0  0  0  0  0  0  0  0  0
    2.4101    0.0485   -0.0564 C   0  0  0  0  0  0  0  0  0  0  0  0
    3.1827   -0.9808    0.0245 N   0  0  0  0  0  0  0  0  0  0  0  0
    4.5186   -0.6258    0.0614 C   0  0  0  0  0  0  0  0  0  0  0  0
    5.6059   -1.5086    0.1481 C   0  0  0  0  0  0  0  0  0  0  0  0
    6.9076   -1.0214    0.1786 C   0  0  0  0  0  0  0  0  0  0  0  0
    7.1525    0.3724    0.1208 C   0  0  0  0  0  0  0  0  0  0  0  0
    8.4452    0.9308    0.1364 N   0  0  0  0  0  0  0  0  0  0  0  0
    9.6690    0.3128    0.2710 C   0  0  0  0  0  0  0  0  0  0  0  0
    9.7760   -0.8965    0.4728 O   0  0  0  0  0  0  0  0  0  0  0  0
   10.8575    1.2149    0.1738 C   0  0  0  0  0  0  0  0  0  0  0  0
   10.7813    2.4657   -0.4756 C   0  0  0  0  0  0  0  0  0  0  0  0
   11.8818    3.3003   -0.5503 C   0  0  0  0  0  0  0  0  0  0  0  0
   11.7802    4.4831   -1.1851 F   0  0  0  0  0  0  0  0  0  0  0  0
   13.1023    2.9221    0.0135 C   0  0  0  0  0  0  0  0  0  0  0  0
   13.2063    1.6884    0.6386 C   0  0  0  0  0  0  0  0  0  0  0  0
   12.1084    0.7942    0.7256 C   0  0  0  0  0  0  0  0  0  0  0  0
   12.2553   -0.4099    1.3506 N   0  0  0  0  0  0  0  0  0  0  0  0
    6.0763    1.2719    0.0329 C   0  0  0  0  0  0  0  0  0  0  0  0
    4.7757    0.7683    0.0052 C   0  0  0  0  0  0  0  0  0  0  0  0
    3.2552    1.6259   -0.0977 S   0  0  0  0  0  0  0  0  0  0  0  0
    0.5950   -1.0488   -0.0755 H   0  0  0  0  0  0  0  0  0  0  0  0
    0.5364    0.4562   -1.0443 H   0  0  0  0  0  0  0  0  0  0  0  0
    0.4639    0.5453    0.7300 H   0  0  0  0  0  0  0  0  0  0  0  0
    5.4143   -2.5826    0.1928 H   0  0  0  0  0  0  0  0  0  0  0  0
    7.7531   -1.6993    0.2542 H   0  0  0  0  0  0  0  0  0  0  0  0
    8.4655    1.9420    0.1103 H   0  0  0  0  0  0  0  0  0  0  0  0
    9.8658    2.7947   -0.9709 H   0  0  0  0  0  0  0  0  0  0  0  0
   13.9591    3.5955   -0.0565 H   0  0  0  0  0  0  0  0  0  0  0  0
   14.1630    1.3842    1.0715 H   0  0  0  0  0  0  0  0  0  0  0  0
   13.1860   -0.7199    1.5921 H   0  0  0  0  0  0  0  0  0  0  0  0
   11.5211   -1.0968    1.1977 H   0  0  0  0  0  0  0  0  0  0  0  0
    6.2597    2.3487   -0.0139 H   0  0  0  0  0  0  0  0  0  0  0  0
  1  2  1  0
  1 22  1  0
  1 23  1  0
  1 24  1  0
  2  3  2  0
  2 21  1  0
  3  4  1  0
  4  5  2  0
  4 20  1  0
  5  6  1  0
  5 25  1  0
  6  7  2  0
  6 26  1  0
  7  8  1  0
  7 19  1  0
  8  9  1  0
  8 27  1  0
  9 10  2  0
  9 11  1  0
 11 12  2  0
 11 17  1  0
 12 13  1  0
 12 28  1  0
 13 14  1  0
 13 15  2  0
 15 16  1  0
 15 29  1  0
 16 17  2  0
 16 30  1  0
 17 18  1  0
 18 31  1  0
 18 32  1  0
 19 20  2  0
 19 33  1  0
 20 21  1  0
M  END

