
     RDKit          3D

 46 48  0  0  0  0  0  0  0  0999 V2000
    3.6010   -1.1163    3.6207 C   0  0  0  0  0  0  0  0  0  0  0  0
    3.8500   -0.6295    2.2017 C   0  0  0  0  0  0  0  0  0  0  0  0
    4.3975    0.4360    1.9594 O   0  0  0  0  0  0  0  0  0  0  0  0
    3.4270   -1.4532    1.1934 N   0  0  0  0  0  0  0  0  0  0  0  0
    3.6184   -1.0599   -0.2053 C   0  0  0  0  0  0  0  0  0  0  0  0
    2.8071   -2.1007   -0.9834 C   0  0  0  0  0  0  0  0  0  0  0  0
    2.8698   -3.3439   -0.0866 C   0  0  2  0  0  0  0  0  0  0  0  0
    1.8341   -4.3125   -0.4041 N   0  0  0  0  0  0  0  0  0  0  0  0
    1.8736   -5.5594    0.1911 C   0  0  0  0  0  0  0  0  0  0  0  0
    2.6760   -5.8146    1.0793 O   0  0  0  0  0  0  0  0  0  0  0  0
    0.9585   -6.4960   -0.2711 N   0  0  0  0  0  0  0  0  0  0  0  0
   -0.2628   -6.2003   -1.0086 C   0  0  0  0  0  0  0  0  0  0  0  0
   -0.5550   -7.3044   -2.0224 C   0  0  0  0  0  0  0  0  0  0  0  0
   -0.5715   -8.6143   -1.3815 N   0  0  0  0  0  0  0  0  0  0  0  0
   -1.4137   -9.6044   -1.8633 C   0  0  0  0  0  0  0  0  0  0  0  0
   -1.2672  -10.9745   -1.5202 C   0  0  0  0  0  0  0  0  0  0  0  0
   -2.1868  -11.8941   -2.0082 C   0  0  0  0  0  0  0  0  0  0  0  0
   -3.2254  -11.4523   -2.8344 C   0  0  0  0  0  0  0  0  0  0  0  0
   -4.5127  -12.6650   -3.5369 Br  0  0  0  0  0  0  0  0  0  0  0  0
   -3.2841  -10.0924   -3.1438 C   0  0  0  0  0  0  0  0  0  0  0  0
   -2.4079   -9.2091   -2.6754 N   0  0  0  0  0  0  0  0  0  0  0  0
    0.6205   -8.9094   -0.5999 C   0  0  0  0  0  0  0  0  0  0  0  0
    0.9134   -7.7880    0.3977 C   0  0  0  0  0  0  0  0  0  0  0  0
    2.7605   -2.7462    1.3291 C   0  0  0  0  0  0  0  0  0  0  0  0
    3.9271   -0.3309    4.3132 H   0  0  0  0  0  0  0  0  0  0  0  0
    4.1677   -2.0385    3.8285 H   0  0  0  0  0  0  0  0  0  0  0  0
    2.5363   -1.3402    3.7939 H   0  0  0  0  0  0  0  0  0  0  0  0
    4.6903   -1.0883   -0.4720 H   0  0  0  0  0  0  0  0  0  0  0  0
    3.2810   -0.0255   -0.3698 H   0  0  0  0  0  0  0  0  0  0  0  0
    3.2009   -2.2773   -1.9961 H   0  0  0  0  0  0  0  0  0  0  0  0
    1.7560   -1.7760   -1.0764 H   0  0  0  0  0  0  0  0  0  0  0  0
    3.8655   -3.8152   -0.1766 H   0  0  0  0  0  0  0  0  0  0  0  0
    1.4159   -4.2295   -1.3219 H   0  0  0  0  0  0  0  0  0  0  0  0
   -0.1861   -5.2435   -1.5406 H   0  0  0  0  0  0  0  0  0  0  0  0
   -1.1168   -6.1112   -0.3072 H   0  0  0  0  0  0  0  0  0  0  0  0
    0.2229   -7.2787   -2.8139 H   0  0  0  0  0  0  0  0  0  0  0  0
   -1.5282   -7.1444   -2.4996 H   0  0  0  0  0  0  0  0  0  0  0  0
   -0.4502  -11.3279   -0.8934 H   0  0  0  0  0  0  0  0  0  0  0  0
   -2.0920  -12.9520   -1.7549 H   0  0  0  0  0  0  0  0  0  0  0  0
   -4.0735   -9.7094   -3.8001 H   0  0  0  0  0  0  0  0  0  0  0  0
    1.4990   -9.0548   -1.2624 H   0  0  0  0  0  0  0  0  0  0  0  0
    0.4774   -9.8351   -0.0293 H   0  0  0  0  0  0  0  0  0  0  0  0
    1.8767   -7.9518    0.8952 H   0  0  0  0  0  0  0  0  0  0  0  0
    0.1259   -7.7855    1.1779 H   0  0  0  0  0  0  0  0  0  0  0  0
    3.2385   -3.3936    2.0759 H   0  0  0  0  0  0  0  0  0  0  0  0
    1.6923   -2.6407    1.6018 H   0  0  0  0  0  0  0  0  0  0  0  0
  1  2  1  0
  1 25  1  0
  1 26  1  0
  1 27  1  0
  2  3  2  0
  2  4  1  0
  4  5  1  0
  4 24  1  0
  5  6  1  0
  5 28  1  0
  5 29  1  0
  6  7  1  0
  6 30  1  0
  6 31  1  0
  7  8  1  0
  7 24  1  0
  7 32  1  1
  8  9  1  0
  8 33  1  0
  9 10  2  0
  9 11  1  0
 11 12  1  0
 11 23  1  0
 12 13  1  0
 12 34  1  0
 12 35  1  0
 13 14  1  0
 13 36  1  0
 13 37  1  0
 14 15  1  0
 14 22  1  0
 15 16  2  0
 15 21  1  0
 16 17  1  0
 16 38  1  0
 17 18  2  0
 17 39  1  0
 18 19  1  0
 18 20  1  0
 20 21  2  0
 20 40  1  0
 22 23  1  0
 22 41  1  0
 22 42  1  0
 23 43  1  0
 23 44  1  0
 24 45  1  0
 24 46  1  0
M  END

