
     RDKit          3D

 38 40  0  0  0  0  0  0  0  0999 V2000
    2.2806    0.5136    2.2086 C   0  0  0  0  0  0  0  0  0  0  0  0
    3.0340    0.1889    0.9409 C   0  0  0  0  0  0  0  0  0  0  0  0
    3.0118    1.0529   -0.1641 C   0  0  0  0  0  0  0  0  0  0  0  0
    3.7234    0.7424   -1.3257 C   0  0  0  0  0  0  0  0  0  0  0  0
    4.4651   -0.4381   -1.4035 C   0  0  0  0  0  0  0  0  0  0  0  0
    4.5066   -1.3199   -0.3140 C   0  0  0  0  0  0  0  0  0  0  0  0
    5.3298   -2.5997   -0.3809 C   0  0  1  0  0  0  0  0  0  0  0  0
    6.5631   -2.5182    0.5404 C   0  0  0  0  0  0  0  0  0  0  0  0
    4.4807   -3.7431   -0.0596 N   0  0  0  0  0  0  0  0  0  0  0  0
    4.7002   -5.0342   -0.4946 C   0  0  0  0  0  0  0  0  0  0  0  0
    5.8910   -5.4342   -1.1538 C   0  0  0  0  0  0  0  0  0  0  0  0
    6.0686   -6.7496   -1.5604 C   0  0  0  0  0  0  0  0  0  0  0  0
    5.0689   -7.7100   -1.3301 C   0  0  0  0  0  0  0  0  0  0  0  0
    3.8817   -7.3645   -0.6945 C   0  0  0  0  0  0  0  0  0  0  0  0
    3.7173   -6.0360   -0.2884 C   0  0  0  0  0  0  0  0  0  0  0  0
    2.2113   -5.5912    0.5060 Cl  0  0  0  0  0  0  0  0  0  0  0  0
    5.4911   -8.9512   -1.8299 N   0  0  0  0  0  0  0  0  0  0  0  0
    6.7494   -8.8918   -2.4038 C   0  0  0  0  0  0  0  0  0  0  0  0
    7.3435   -9.8164   -2.9089 O   0  0  0  0  0  0  0  0  0  0  0  0
    7.2161   -7.4295   -2.2628 C   0  0  0  0  0  0  0  0  0  0  0  0
    3.7902   -0.9904    0.8464 C   0  0  0  0  0  0  0  0  0  0  0  0
    1.6604    1.4143    2.0917 H   0  0  0  0  0  0  0  0  0  0  0  0
    2.9724    0.6908    3.0496 H   0  0  0  0  0  0  0  0  0  0  0  0
    1.6194   -0.3164    2.5069 H   0  0  0  0  0  0  0  0  0  0  0  0
    2.4300    1.9776   -0.1140 H   0  0  0  0  0  0  0  0  0  0  0  0
    3.6940    1.4236   -2.1801 H   0  0  0  0  0  0  0  0  0  0  0  0
    5.0133   -0.6798   -2.3183 H   0  0  0  0  0  0  0  0  0  0  0  0
    5.6892   -2.6997   -1.4227 H   0  0  0  0  0  0  0  0  0  0  0  0
    6.2551   -2.3605    1.5852 H   0  0  0  0  0  0  0  0  0  0  0  0
    7.2132   -1.6812    0.2410 H   0  0  0  0  0  0  0  0  0  0  0  0
    7.1536   -3.4459    0.5016 H   0  0  0  0  0  0  0  0  0  0  0  0
    3.5188   -3.5329    0.1785 H   0  0  0  0  0  0  0  0  0  0  0  0
    6.6772   -4.7028   -1.3418 H   0  0  0  0  0  0  0  0  0  0  0  0
    3.0866   -8.0877   -0.5081 H   0  0  0  0  0  0  0  0  0  0  0  0
    4.9599   -9.8129   -1.7943 H   0  0  0  0  0  0  0  0  0  0  0  0
    7.4324   -7.0217   -3.2643 H   0  0  0  0  0  0  0  0  0  0  0  0
    8.1629   -7.4059   -1.6976 H   0  0  0  0  0  0  0  0  0  0  0  0
    3.8187   -1.6678    1.7060 H   0  0  0  0  0  0  0  0  0  0  0  0
  1  2  1  0
  1 22  1  0
  1 23  1  0
  1 24  1  0
  2  3  2  0
  2 21  1  0
  3  4  1  0
  3 25  1  0
  4  5  2  0
  4 26  1  0
  5  6  1  0
  5 27  1  0
  6  7  1  0
  6 21  2  0
  7  8  1  0
  7  9  1  0
  7 28  1  6
  8 29  1  0
  8 30  1  0
  8 31  1  0
  9 10  1  0
  9 32  1  0
 10 11  2  0
 10 15  1  0
 11 12  1  0
 11 33  1  0
 12 13  2  0
 12 20  1  0
 13 14  1  0
 13 17  1  0
 14 15  2  0
 14 34  1  0
 15 16  1  0
 17 18  1  0
 17 35  1  0
 18 19  2  0
 18 20  1  0
 20 36  1  0
 20 37  1  0
 21 38  1  0
M  END

