
     RDKit          3D

 53 56  0  0  0  0  0  0  0  0999 V2000
    2.5174   -0.3994    1.1617 C   0  0  0  0  0  0  0  0  0  0  0  0
    3.3962   -1.5632    1.5541 C   0  0  0  0  0  0  0  0  0  0  0  0
    3.7101   -1.8188    2.8929 C   0  0  0  0  0  0  0  0  0  0  0  0
    4.5316   -2.9034    3.2287 C   0  0  0  0  0  0  0  0  0  0  0  0
    5.0470   -3.7420    2.2459 C   0  0  0  0  0  0  0  0  0  0  0  0
    4.7381   -3.4933    0.8958 C   0  0  0  0  0  0  0  0  0  0  0  0
    5.2781   -4.3546   -0.0139 O   0  0  0  0  0  0  0  0  0  0  0  0
    5.0617   -4.1321   -1.3949 C   0  0  0  0  0  0  0  0  0  0  0  0
    5.8476   -5.1577   -2.2007 C   0  0  0  0  0  0  0  0  0  0  0  0
    5.3980   -6.5407   -2.0635 N   0  0  0  0  0  0  0  0  0  0  0  0
    4.1923   -6.9667   -2.7609 C   0  0  0  0  0  0  0  0  0  0  0  0
    2.9398   -6.8812   -1.9363 C   0  0  0  0  0  0  0  0  0  0  0  0
    2.6756   -6.6181   -0.6206 C   0  0  0  0  0  0  0  0  0  0  0  0
    1.2502   -6.7308   -0.4700 C   0  0  0  0  0  0  0  0  0  0  0  0
    0.7631   -7.0557   -1.7014 C   0  0  0  0  0  0  0  0  0  0  0  0
    1.7818   -7.1488   -2.5993 O   0  0  0  0  0  0  0  0  0  0  0  0
    6.5170   -7.7318   -1.5983 S   0  0  1  0  0  0  0  0  0  0  0  0
    6.2901   -8.9042   -2.4498 O   0  0  0  0  0  0  0  0  0  0  0  0
    7.8246   -7.0731   -1.5387 O   0  0  0  0  0  0  0  0  0  0  0  0
    6.0724   -8.2045    0.0703 C   0  0  0  0  0  0  0  0  0  0  0  0
    5.3750   -9.3971    0.2874 C   0  0  0  0  0  0  0  0  0  0  0  0
    5.0503   -9.7596    1.5933 C   0  0  0  0  0  0  0  0  0  0  0  0
    5.4121   -8.9413    2.6690 C   0  0  0  0  0  0  0  0  0  0  0  0
    6.1037   -7.7315    2.4302 C   0  0  0  0  0  0  0  0  0  0  0  0
    6.4454   -7.3718    1.1274 C   0  0  0  0  0  0  0  0  0  0  0  0
    6.4519   -6.8959    3.4552 O   0  0  0  0  0  0  0  0  0  0  0  0
    5.7730   -7.1486    4.6782 C   0  0  0  0  0  0  0  0  0  0  0  0
    5.7598   -8.6384    4.9698 C   0  0  0  0  0  0  0  0  0  0  0  0
    5.0888   -9.3380    3.9299 O   0  0  0  0  0  0  0  0  0  0  0  0
    3.9174   -2.4098    0.5572 C   0  0  0  0  0  0  0  0  0  0  0  0
    2.1434    0.1399    2.0441 H   0  0  0  0  0  0  0  0  0  0  0  0
    1.6454   -0.7345    0.5756 H   0  0  0  0  0  0  0  0  0  0  0  0
    3.0668    0.3233    0.5346 H   0  0  0  0  0  0  0  0  0  0  0  0
    3.3137   -1.1692    3.6773 H   0  0  0  0  0  0  0  0  0  0  0  0
    4.7751   -3.0936    4.2776 H   0  0  0  0  0  0  0  0  0  0  0  0
    5.6868   -4.5890    2.4999 H   0  0  0  0  0  0  0  0  0  0  0  0
    5.4213   -3.1254   -1.6819 H   0  0  0  0  0  0  0  0  0  0  0  0
    3.9831   -4.1837   -1.6273 H   0  0  0  0  0  0  0  0  0  0  0  0
    6.9049   -5.1136   -1.9107 H   0  0  0  0  0  0  0  0  0  0  0  0
    5.7913   -4.8595   -3.2651 H   0  0  0  0  0  0  0  0  0  0  0  0
    4.3341   -7.9990   -3.1188 H   0  0  0  0  0  0  0  0  0  0  0  0
    4.0707   -6.3519   -3.6729 H   0  0  0  0  0  0  0  0  0  0  0  0
    3.4103   -6.3702    0.1406 H   0  0  0  0  0  0  0  0  0  0  0  0
    0.6710   -6.5868    0.4397 H   0  0  0  0  0  0  0  0  0  0  0  0
   -0.2347   -7.2436   -2.0889 H   0  0  0  0  0  0  0  0  0  0  0  0
    5.1124  -10.0351   -0.5566 H   0  0  0  0  0  0  0  0  0  0  0  0
    4.5209  -10.6895    1.8099 H   0  0  0  0  0  0  0  0  0  0  0  0
    6.9883   -6.4430    0.9539 H   0  0  0  0  0  0  0  0  0  0  0  0
    4.7374   -6.7649    4.6196 H   0  0  0  0  0  0  0  0  0  0  0  0
    6.3104   -6.5956    5.4620 H   0  0  0  0  0  0  0  0  0  0  0  0
    5.2188   -8.8568    5.9019 H   0  0  0  0  0  0  0  0  0  0  0  0
    6.7957   -9.0131    5.0659 H   0  0  0  0  0  0  0  0  0  0  0  0
    3.6656   -2.2076   -0.4845 H   0  0  0  0  0  0  0  0  0  0  0  0
  1  2  1  0
  1 31  1  0
  1 32  1  0
  1 33  1  0
  2  3  2  0
  2 30  1  0
  3  4  1  0
  3 34  1  0
  4  5  2  0
  4 35  1  0
  5  6  1  0
  5 36  1  0
  6  7  1  0
  6 30  2  0
  7  8  1  0
  8  9  1  0
  8 37  1  0
  8 38  1  0
  9 10  1  0
  9 39  1  0
  9 40  1  0
 10 11  1  0
 17 10  1  6
 11 12  1  0
 11 41  1  0
 11 42  1  0
 12 13  2  0
 12 16  1  0
 13 14  1  0
 13 43  1  0
 14 15  2  0
 14 44  1  0
 15 16  1  0
 15 45  1  0
 17 18  2  0
 17 19  2  0
 17 20  1  0
 20 21  2  0
 20 25  1  0
 21 22  1  0
 21 46  1  0
 22 23  2  0
 22 47  1  0
 23 24  1  0
 23 29  1  0
 24 25  2  0
 24 26  1  0
 25 48  1  0
 26 27  1  0
 27 28  1  0
 27 49  1  0
 27 50  1  0
 28 29  1  0
 28 51  1  0
 28 52  1  0
 30 53  1  0
M  END

