
     RDKit          3D

 27 28  0  0  0  0  0  0  0  0999 V2000
    1.4088    0.2797   -1.1797 C   0  0  0  0  0  0  0  0  0  0  0  0
    2.6695    0.0459   -0.4325 C   0  0  0  0  0  0  0  0  0  0  0  0
    3.2867   -1.0583    0.0432 C   0  0  0  0  0  0  0  0  0  0  0  0
    2.8959   -2.4714    0.0486 C   0  0  0  0  0  0  0  0  0  0  0  0
    3.8798   -3.4836    0.0344 C   0  0  0  0  0  0  0  0  0  0  0  0
    3.5262   -4.8351    0.0228 C   0  0  0  0  0  0  0  0  0  0  0  0
    4.5789   -5.9170   -0.0018 C   0  0  0  0  0  0  0  0  0  0  0  0
    2.1620   -5.1736    0.0367 C   0  0  0  0  0  0  0  0  0  0  0  0
    1.1587   -4.1975    0.0681 C   0  0  0  0  0  0  0  0  0  0  0  0
   -0.3032   -4.5753    0.1028 C   0  0  0  0  0  0  0  0  0  0  0  0
    1.5409   -2.8485    0.0741 C   0  0  0  0  0  0  0  0  0  0  0  0
    4.5678   -0.5292    0.6363 C   0  0  0  0  0  0  0  0  0  0  0  0
    5.4767   -1.0900    1.1717 O   0  0  0  0  0  0  0  0  0  0  0  0
    4.5430    0.9602    0.4380 N   0  0  0  0  0  0  0  0  0  0  0  0
    3.4898    1.2442   -0.1519 N   0  0  0  0  0  0  0  0  0  0  0  0
    1.0715   -0.6224   -1.7084 H   0  0  0  0  0  0  0  0  0  0  0  0
    1.5577    1.0998   -1.8997 H   0  0  0  0  0  0  0  0  0  0  0  0
    0.5991    0.6013   -0.4998 H   0  0  0  0  0  0  0  0  0  0  0  0
    4.9340   -3.2052    0.0360 H   0  0  0  0  0  0  0  0  0  0  0  0
    5.5939   -5.4944    0.0046 H   0  0  0  0  0  0  0  0  0  0  0  0
    4.4810   -6.5490   -0.9003 H   0  0  0  0  0  0  0  0  0  0  0  0
    4.4853   -6.5840    0.8714 H   0  0  0  0  0  0  0  0  0  0  0  0
    1.8757   -6.2302    0.0315 H   0  0  0  0  0  0  0  0  0  0  0  0
   -0.4392   -5.6664    0.1186 H   0  0  0  0  0  0  0  0  0  0  0  0
   -0.8399   -4.1828   -0.7771 H   0  0  0  0  0  0  0  0  0  0  0  0
   -0.8022   -4.1608    0.9946 H   0  0  0  0  0  0  0  0  0  0  0  0
    0.7673   -2.0799    0.1307 H   0  0  0  0  0  0  0  0  0  0  0  0
  1  2  1  0
  1 16  1  0
  1 17  1  0
  1 18  1  0
  2  3  2  0
  2 15  1  0
  3  4  1  0
  3 12  1  0
  4  5  2  0
  4 11  1  0
  5  6  1  0
  5 19  1  0
  6  7  1  0
  6  8  2  0
  7 20  1  0
  7 21  1  0
  7 22  1  0
  8  9  1  0
  8 23  1  0
  9 10  1  0
  9 11  2  0
 10 24  1  0
 10 25  1  0
 10 26  1  0
 11 27  1  0
 12 13  2  0
 12 14  1  0
 14 15  2  0
M  END

