
     RDKit          3D

 39 41  0  0  0  0  0  0  0  0999 V2000
    3.9006   -0.3290    1.9442 C   0  0  0  0  0  0  0  0  0  0  0  0
    2.8579   -0.9733    1.2435 O   0  0  0  0  0  0  0  0  0  0  0  0
    3.1199   -1.5754    0.0448 C   0  0  0  0  0  0  0  0  0  0  0  0
    4.3644   -1.4954   -0.5960 C   0  0  0  0  0  0  0  0  0  0  0  0
    4.5687   -2.1528   -1.8141 C   0  0  0  0  0  0  0  0  0  0  0  0
    3.5414   -2.8976   -2.3898 C   0  0  0  0  0  0  0  0  0  0  0  0
    2.3039   -2.9759   -1.7403 C   0  0  0  0  0  0  0  0  0  0  0  0
    2.0602   -2.3207   -0.5286 C   0  0  0  0  0  0  0  0  0  0  0  0
    0.7010   -2.3838    0.1694 C   0  0  1  0  0  0  0  0  0  0  0  0
   -0.2502   -1.2167   -0.2643 C   0  0  1  0  0  0  0  0  0  0  0  0
    0.3279    0.1129   -0.1932 N   0  0  0  0  0  0  0  0  0  0  0  0
   -0.7961   -1.4853   -1.6624 C   0  0  0  0  0  0  0  0  0  0  0  0
   -1.5662   -2.8028   -1.6911 C   0  0  0  0  0  0  0  0  0  0  0  0
   -1.0154   -3.9449   -0.8408 C   0  0  0  0  0  0  0  0  0  0  0  0
   -1.5396   -5.0459   -0.8830 O   0  0  0  0  0  0  0  0  0  0  0  0
    0.0372   -3.6854    0.0166 N   0  0  0  0  0  0  0  0  0  0  0  0
    0.3615   -4.7619    0.9314 C   0  0  1  0  0  0  0  0  0  0  0  0
    1.2355   -5.9119    0.5140 C   0  0  0  0  0  0  0  0  0  0  0  0
    1.7355   -4.9123    1.5272 C   0  0  0  0  0  0  0  0  0  0  0  0
    4.7366   -1.0182    2.1575 H   0  0  0  0  0  0  0  0  0  0  0  0
    3.4712    0.0164    2.8942 H   0  0  0  0  0  0  0  0  0  0  0  0
    4.2907    0.5438    1.3908 H   0  0  0  0  0  0  0  0  0  0  0  0
    5.1810   -0.9254   -0.1532 H   0  0  0  0  0  0  0  0  0  0  0  0
    5.5429   -2.0815   -2.3043 H   0  0  0  0  0  0  0  0  0  0  0  0
    3.6976   -3.4221   -3.3349 H   0  0  0  0  0  0  0  0  0  0  0  0
    1.5078   -3.5825   -2.1771 H   0  0  0  0  0  0  0  0  0  0  0  0
    0.8881   -2.2475    1.2441 H   0  0  0  0  0  0  0  0  0  0  0  0
   -1.0980   -1.2507    0.4457 H   0  0  0  0  0  0  0  0  0  0  0  0
    1.0482    0.2238   -0.9081 H   0  0  0  0  0  0  0  0  0  0  0  0
    0.7956    0.2564    0.7008 H   0  0  0  0  0  0  0  0  0  0  0  0
    0.0438   -1.5055   -2.3785 H   0  0  0  0  0  0  0  0  0  0  0  0
   -1.4421   -0.6465   -1.9646 H   0  0  0  0  0  0  0  0  0  0  0  0
   -1.6857   -3.1975   -2.7120 H   0  0  0  0  0  0  0  0  0  0  0  0
   -2.5934   -2.6527   -1.3157 H   0  0  0  0  0  0  0  0  0  0  0  0
   -0.4846   -5.0296    1.5750 H   0  0  0  0  0  0  0  0  0  0  0  0
    1.6694   -5.8657   -0.4878 H   0  0  0  0  0  0  0  0  0  0  0  0
    0.9483   -6.9150    0.8399 H   0  0  0  0  0  0  0  0  0  0  0  0
    2.5258   -4.2279    1.2118 H   0  0  0  0  0  0  0  0  0  0  0  0
    1.7920   -5.2062    2.5792 H   0  0  0  0  0  0  0  0  0  0  0  0
  1  2  1  0
  1 20  1  0
  1 21  1  0
  1 22  1  0
  2  3  1  0
  3  4  2  0
  3  8  1  0
  4  5  1  0
  4 23  1  0
  5  6  2  0
  5 24  1  0
  6  7  1  0
  6 25  1  0
  7  8  2  0
  7 26  1  0
  8  9  1  0
  9 10  1  0
  9 16  1  0
  9 27  1  1
 10 11  1  0
 10 12  1  0
 10 28  1  1
 11 29  1  0
 11 30  1  0
 12 13  1  0
 12 31  1  0
 12 32  1  0
 13 14  1  0
 13 33  1  0
 13 34  1  0
 14 15  2  0
 14 16  1  0
 16 17  1  0
 17 18  1  0
 17 19  1  0
 17 35  1  1
 18 19  1  0
 18 36  1  0
 18 37  1  0
 19 38  1  0
 19 39  1  0
M  END

