
     RDKit          3D

 44 48  0  0  0  0  0  0  0  0999 V2000
    1.1397   -0.0318    0.0246 C   0  0  0  0  0  0  0  0  0  0  0  0
    0.3141   -1.0591    0.3218 C   0  0  0  0  0  0  0  0  0  0  0  0
   -1.1543   -1.0760    0.1662 C   0  0  0  0  0  0  0  0  0  0  0  0
   -1.7890   -0.6978   -1.0525 C   0  0  0  0  0  0  0  0  0  0  0  0
   -1.0666   -0.3395   -2.2399 C   0  0  0  0  0  0  0  0  0  0  0  0
   -1.7136    0.0274   -3.3947 C   0  0  0  0  0  0  0  0  0  0  0  0
   -3.1368    0.0616   -3.4541 C   0  0  0  0  0  0  0  0  0  0  0  0
   -3.8716   -0.3070   -2.3574 C   0  0  0  0  0  0  0  0  0  0  0  0
   -3.2358   -0.7106   -1.1382 C   0  0  0  0  0  0  0  0  0  0  0  0
   -3.9926   -1.1310   -0.0383 C   0  0  0  0  0  0  0  0  0  0  0  0
   -3.3872   -1.5453    1.1548 C   0  0  0  0  0  0  0  0  0  0  0  0
   -4.1688   -1.9861    2.2710 C   0  0  0  0  0  0  0  0  0  0  0  0
   -3.5745   -2.3687    3.4465 C   0  0  0  0  0  0  0  0  0  0  0  0
   -2.1566   -2.3182    3.5725 C   0  0  0  0  0  0  0  0  0  0  0  0
   -1.3738   -1.8978    2.5241 C   0  0  0  0  0  0  0  0  0  0  0  0
   -1.9469   -1.5112    1.2681 C   0  0  0  0  0  0  0  0  0  0  0  0
    2.6060   -0.0496    0.1555 C   0  0  0  0  0  0  0  0  0  0  0  0
    3.3199   -1.2298   -0.0312 C   0  0  0  0  0  0  0  0  0  0  0  0
    4.7271   -1.2759    0.0779 C   0  0  0  0  0  0  0  0  0  0  0  0
    5.4402   -0.1309    0.3601 C   0  0  0  0  0  0  0  0  0  0  0  0
    4.7686    1.1075    0.5544 C   0  0  0  0  0  0  0  0  0  0  0  0
    5.4906    2.2984    0.8501 C   0  0  0  0  0  0  0  0  0  0  0  0
    4.8383    3.4949    1.0551 C   0  0  0  0  0  0  0  0  0  0  0  0
    3.4254    3.5478    0.9789 C   0  0  0  0  0  0  0  0  0  0  0  0
    2.6962    2.4112    0.6935 C   0  0  0  0  0  0  0  0  0  0  0  0
    3.3344    1.1591    0.4601 C   0  0  0  0  0  0  0  0  0  0  0  0
    0.6902    0.8997   -0.3310 H   0  0  0  0  0  0  0  0  0  0  0  0
    0.7559   -1.9564    0.7700 H   0  0  0  0  0  0  0  0  0  0  0  0
    0.0216   -0.3792   -2.2280 H   0  0  0  0  0  0  0  0  0  0  0  0
   -1.1309    0.2856   -4.2827 H   0  0  0  0  0  0  0  0  0  0  0  0
   -3.6353    0.3646   -4.3783 H   0  0  0  0  0  0  0  0  0  0  0  0
   -4.9645   -0.3086   -2.3946 H   0  0  0  0  0  0  0  0  0  0  0  0
   -5.0836   -1.1411   -0.1147 H   0  0  0  0  0  0  0  0  0  0  0  0
   -5.2568   -2.0084    2.1647 H   0  0  0  0  0  0  0  0  0  0  0  0
   -4.1828   -2.7036    4.2905 H   0  0  0  0  0  0  0  0  0  0  0  0
   -1.6888   -2.6090    4.5167 H   0  0  0  0  0  0  0  0  0  0  0  0
   -0.2928   -1.8436    2.6567 H   0  0  0  0  0  0  0  0  0  0  0  0
    2.7801   -2.1401   -0.3012 H   0  0  0  0  0  0  0  0  0  0  0  0
    5.2469   -2.2242   -0.0808 H   0  0  0  0  0  0  0  0  0  0  0  0
    6.5307   -0.1570    0.4338 H   0  0  0  0  0  0  0  0  0  0  0  0
    6.5809    2.2444    0.9150 H   0  0  0  0  0  0  0  0  0  0  0  0
    5.4061    4.4008    1.2816 H   0  0  0  0  0  0  0  0  0  0  0  0
    2.9082    4.4949    1.1525 H   0  0  0  0  0  0  0  0  0  0  0  0
    1.6080    2.4762    0.6586 H   0  0  0  0  0  0  0  0  0  0  0  0
  1  2  2  0
  1 17  1  0
  1 27  1  0
  2  3  1  0
  2 28  1  0
  3  4  1  0
  3 16  2  0
  4  5  2  0
  4  9  1  0
  5  6  1  0
  5 29  1  0
  6  7  2  0
  6 30  1  0
  7  8  1  0
  7 31  1  0
  8  9  2  0
  8 32  1  0
  9 10  1  0
 10 11  2  0
 10 33  1  0
 11 12  1  0
 11 16  1  0
 12 13  2  0
 12 34  1  0
 13 14  1  0
 13 35  1  0
 14 15  2  0
 14 36  1  0
 15 16  1  0
 15 37  1  0
 17 18  2  0
 17 26  1  0
 18 19  1  0
 18 38  1  0
 19 20  2  0
 19 39  1  0
 20 21  1  0
 20 40  1  0
 21 22  1  0
 21 26  2  0
 22 23  2  0
 22 41  1  0
 23 24  1  0
 23 42  1  0
 24 25  2  0
 24 43  1  0
 25 26  1  0
 25 44  1  0
M  END

