
     RDKit          3D

 40 40  0  0  0  0  0  0  0  0999 V2000
    1.0230    0.1793    0.1779 C   0  0  0  0  0  0  0  0  0  0  0  0
    2.4012   -0.0572    0.0866 O   0  0  0  0  0  0  0  0  0  0  0  0
    2.9175   -0.8314    1.1375 C   0  0  0  0  0  0  0  0  0  0  0  0
    4.4090   -1.0058    0.9073 C   0  0  0  0  0  0  0  0  0  0  0  0
    4.9273   -1.7781    1.9600 O   0  0  0  0  0  0  0  0  0  0  0  0
    6.3079   -2.0268    1.8753 C   0  0  0  0  0  0  0  0  0  0  0  0
    6.7222   -2.8763    3.0690 C   0  0  0  0  0  0  0  0  0  0  0  0
    8.1454   -3.1649    3.0162 N   0  0  0  0  0  0  0  0  0  0  0  0
    8.6697   -4.0320    4.0733 C   0  0  1  0  0  0  0  0  0  0  0  0
    8.1687   -5.4774    3.9085 C   0  0  0  0  0  0  0  0  0  0  0  0
   10.1919   -3.9921    4.0625 C   0  0  0  0  0  0  0  0  0  0  0  0
   10.9123   -3.9622    2.8589 C   0  0  0  0  0  0  0  0  0  0  0  0
   12.3102   -3.9696    2.8649 C   0  0  0  0  0  0  0  0  0  0  0  0
   13.0450   -4.0108    4.0582 C   0  0  0  0  0  0  0  0  0  0  0  0
   14.5501   -4.0185    4.1021 C   0  0  0  0  0  0  0  0  0  0  0  0
   12.2993   -4.0407    5.2427 C   0  0  0  0  0  0  0  0  0  0  0  0
   12.9644   -4.0735    6.4142 F   0  0  0  0  0  0  0  0  0  0  0  0
   10.9093   -4.0302    5.2667 C   0  0  0  0  0  0  0  0  0  0  0  0
    0.7267    0.7895   -0.6880 H   0  0  0  0  0  0  0  0  0  0  0  0
    0.7551    0.7284    1.1040 H   0  0  0  0  0  0  0  0  0  0  0  0
    0.4368   -0.7625    0.1623 H   0  0  0  0  0  0  0  0  0  0  0  0
    2.4328   -1.8290    1.1844 H   0  0  0  0  0  0  0  0  0  0  0  0
    2.7511   -0.3447    2.1214 H   0  0  0  0  0  0  0  0  0  0  0  0
    4.8931   -0.0085    0.8596 H   0  0  0  0  0  0  0  0  0  0  0  0
    4.5759   -1.4944   -0.0746 H   0  0  0  0  0  0  0  0  0  0  0  0
    6.8767   -1.0707    1.8687 H   0  0  0  0  0  0  0  0  0  0  0  0
    6.5658   -2.5580    0.9367 H   0  0  0  0  0  0  0  0  0  0  0  0
    6.1497   -3.8159    3.0278 H   0  0  0  0  0  0  0  0  0  0  0  0
    6.4056   -2.3587    4.0020 H   0  0  0  0  0  0  0  0  0  0  0  0
    8.6675   -2.2888    3.0292 H   0  0  0  0  0  0  0  0  0  0  0  0
    8.3394   -3.6837    5.0782 H   0  0  0  0  0  0  0  0  0  0  0  0
    8.4678   -5.8750    2.9263 H   0  0  0  0  0  0  0  0  0  0  0  0
    7.0725   -5.5393    3.9892 H   0  0  0  0  0  0  0  0  0  0  0  0
    8.5970   -6.1216    4.6912 H   0  0  0  0  0  0  0  0  0  0  0  0
   10.3659   -3.9255    1.9147 H   0  0  0  0  0  0  0  0  0  0  0  0
   12.8526   -3.9437    1.9154 H   0  0  0  0  0  0  0  0  0  0  0  0
   14.9743   -3.9918    3.0882 H   0  0  0  0  0  0  0  0  0  0  0  0
   14.9323   -4.9186    4.6113 H   0  0  0  0  0  0  0  0  0  0  0  0
   14.9403   -3.1519    4.6611 H   0  0  0  0  0  0  0  0  0  0  0  0
   10.4007   -4.0475    6.2337 H   0  0  0  0  0  0  0  0  0  0  0  0
  1  2  1  0
  1 19  1  0
  1 20  1  0
  1 21  1  0
  2  3  1  0
  3  4  1  0
  3 22  1  0
  3 23  1  0
  4  5  1  0
  4 24  1  0
  4 25  1  0
  5  6  1  0
  6  7  1  0
  6 26  1  0
  6 27  1  0
  7  8  1  0
  7 28  1  0
  7 29  1  0
  8  9  1  0
  8 30  1  0
  9 10  1  0
  9 11  1  0
  9 31  1  1
 10 32  1  0
 10 33  1  0
 10 34  1  0
 11 12  2  0
 11 18  1  0
 12 13  1  0
 12 35  1  0
 13 14  2  0
 13 36  1  0
 14 15  1  0
 14 16  1  0
 15 37  1  0
 15 38  1  0
 15 39  1  0
 16 17  1  0
 16 18  2  0
 18 40  1  0
M  END

