
     RDKit          3D

 46 47  0  0  0  0  0  0  0  0999 V2000
    1.0178   -0.1864   -0.6216 C   0  0  0  0  0  0  0  0  0  0  0  0
    2.4768   -0.1989   -0.2313 C   0  0  0  0  0  0  0  0  0  0  0  0
    3.1708    0.9915    0.0113 C   0  0  0  0  0  0  0  0  0  0  0  0
    4.5288    0.9867    0.3754 C   0  0  0  0  0  0  0  0  0  0  0  0
    5.2703    2.2769    0.6346 C   0  0  0  0  0  0  0  0  0  0  0  0
    5.1883   -0.2389    0.4944 C   0  0  0  0  0  0  0  0  0  0  0  0
    4.5070   -1.4418    0.2548 C   0  0  0  0  0  0  0  0  0  0  0  0
    5.2428   -2.5803    0.4004 O   0  0  0  0  0  0  0  0  0  0  0  0
    4.6447   -3.8368    0.1713 C   0  0  0  0  0  0  0  0  0  0  0  0
    5.7358   -4.8756    0.4015 C   0  0  0  0  0  0  0  0  0  0  0  0
    5.1993   -6.2001    0.3294 O   0  0  0  0  0  0  0  0  0  0  0  0
    5.1236   -6.7820   -0.8885 C   0  0  0  0  0  0  0  0  0  0  0  0
    5.4733   -6.2208   -1.9020 O   0  0  0  0  0  0  0  0  0  0  0  0
    4.5700   -8.1702   -0.8138 C   0  0  0  0  0  0  0  0  0  0  0  0
    4.1819   -8.6806    0.4373 C   0  0  0  0  0  0  0  0  0  0  0  0
    3.6609   -9.9654    0.5371 C   0  0  0  0  0  0  0  0  0  0  0  0
    3.1645  -10.5953    2.1420 S   0  0  1  0  0  0  0  0  0  0  0  0
    4.5080  -11.4907    2.6435 N   0  0  0  0  0  0  0  0  0  0  0  0
    3.0200   -9.4462    3.0386 O   0  0  0  0  0  0  0  0  0  0  0  0
    2.0905  -11.5672    1.9259 O   0  0  0  0  0  0  0  0  0  0  0  0
    3.4966  -10.7626   -0.5978 C   0  0  0  0  0  0  0  0  0  0  0  0
    3.8832  -10.2543   -1.8349 C   0  0  0  0  0  0  0  0  0  0  0  0
    4.4258   -8.9646   -1.9823 C   0  0  0  0  0  0  0  0  0  0  0  0
    4.8152   -8.4995   -3.3618 C   0  0  0  0  0  0  0  0  0  0  0  0
    3.1546   -1.4241   -0.1073 C   0  0  0  0  0  0  0  0  0  0  0  0
    0.6247    0.8388   -0.6847 H   0  0  0  0  0  0  0  0  0  0  0  0
    0.4029   -0.7385    0.1090 H   0  0  0  0  0  0  0  0  0  0  0  0
    0.8610   -0.6682   -1.6014 H   0  0  0  0  0  0  0  0  0  0  0  0
    2.6461    1.9463   -0.0844 H   0  0  0  0  0  0  0  0  0  0  0  0
    4.6179    3.1524    0.5020 H   0  0  0  0  0  0  0  0  0  0  0  0
    6.1285    2.3892   -0.0488 H   0  0  0  0  0  0  0  0  0  0  0  0
    5.6720    2.3081    1.6612 H   0  0  0  0  0  0  0  0  0  0  0  0
    6.2432   -0.2906    0.7745 H   0  0  0  0  0  0  0  0  0  0  0  0
    4.2612   -3.9142   -0.8618 H   0  0  0  0  0  0  0  0  0  0  0  0
    3.8045   -4.0152    0.8684 H   0  0  0  0  0  0  0  0  0  0  0  0
    6.1452   -4.7697    1.4153 H   0  0  0  0  0  0  0  0  0  0  0  0
    6.5394   -4.7506   -0.3374 H   0  0  0  0  0  0  0  0  0  0  0  0
    4.2762   -8.0630    1.3291 H   0  0  0  0  0  0  0  0  0  0  0  0
    4.9900  -11.0152    3.4065 H   0  0  0  0  0  0  0  0  0  0  0  0
    4.2054  -12.4278    2.9108 H   0  0  0  0  0  0  0  0  0  0  0  0
    3.0597  -11.7589   -0.5086 H   0  0  0  0  0  0  0  0  0  0  0  0
    3.7561  -10.8734   -2.7264 H   0  0  0  0  0  0  0  0  0  0  0  0
    4.6186   -9.2892   -4.1010 H   0  0  0  0  0  0  0  0  0  0  0  0
    5.8784   -8.2214   -3.4082 H   0  0  0  0  0  0  0  0  0  0  0  0
    4.2638   -7.5927   -3.6512 H   0  0  0  0  0  0  0  0  0  0  0  0
    2.6134   -2.3521   -0.2970 H   0  0  0  0  0  0  0  0  0  0  0  0
  1  2  1  0
  1 26  1  0
  1 27  1  0
  1 28  1  0
  2  3  2  0
  2 25  1  0
  3  4  1  0
  3 29  1  0
  4  5  1  0
  4  6  2  0
  5 30  1  0
  5 31  1  0
  5 32  1  0
  6  7  1  0
  6 33  1  0
  7  8  1  0
  7 25  2  0
  8  9  1  0
  9 10  1  0
  9 34  1  0
  9 35  1  0
 10 11  1  0
 10 36  1  0
 10 37  1  0
 11 12  1  0
 12 13  2  0
 12 14  1  0
 14 15  2  0
 14 23  1  0
 15 16  1  0
 15 38  1  0
 16 17  1  0
 16 21  2  0
 17 18  1  1
 17 19  2  0
 17 20  2  0
 18 39  1  0
 18 40  1  0
 21 22  1  0
 21 41  1  0
 22 23  2  0
 22 42  1  0
 23 24  1  0
 24 43  1  0
 24 44  1  0
 24 45  1  0
 25 46  1  0
M  END

