
     RDKit          3D

 45 48  0  0  0  0  0  0  0  0999 V2000
   -0.2748    3.5106    8.0792 C   0  0  0  0  0  0  0  0  0  0  0  0
    0.1701    4.4554    6.9519 C   0  0  0  0  0  0  0  0  0  0  0  0
    1.4858    4.0547    6.3195 C   0  0  0  0  0  0  0  0  0  0  0  0
    1.5258    3.1957    5.2109 C   0  0  0  0  0  0  0  0  0  0  0  0
    2.7436    2.8043    4.6458 C   0  0  0  0  0  0  0  0  0  0  0  0
    3.9581    3.2502    5.1848 C   0  0  0  0  0  0  0  0  0  0  0  0
    5.2850    2.7807    4.6066 C   0  0  1  0  0  0  0  0  0  0  0  0
    6.2904    3.7470    4.7628 O   0  0  0  0  0  0  0  0  0  0  0  0
    5.7615    1.4935    5.2498 C   0  0  0  0  0  0  0  0  0  0  0  0
    7.0369    1.2478    5.4641 N   0  0  0  0  0  0  0  0  0  0  0  0
    7.0909   -0.0010    6.0246 C   0  0  0  0  0  0  0  0  0  0  0  0
    5.8176   -0.5369    6.1514 C   0  0  0  0  0  0  0  0  0  0  0  0
    5.3414   -1.8186    6.6695 C   0  0  0  0  0  0  0  0  0  0  0  0
    6.2050   -2.6127    7.4877 C   0  0  0  0  0  0  0  0  0  0  0  0
    5.7926   -3.8244    7.9882 C   0  0  0  0  0  0  0  0  0  0  0  0
    4.4897   -4.3324    7.7177 C   0  0  0  0  0  0  0  0  0  0  0  0
    4.0324   -5.5788    8.2249 C   0  0  0  0  0  0  0  0  0  0  0  0
    2.7626   -6.0365    7.9367 C   0  0  0  0  0  0  0  0  0  0  0  0
    1.8934   -5.2636    7.1256 C   0  0  0  0  0  0  0  0  0  0  0  0
    2.3077   -4.0490    6.6194 C   0  0  0  0  0  0  0  0  0  0  0  0
    3.6106   -3.5474    6.8996 C   0  0  0  0  0  0  0  0  0  0  0  0
    4.0693   -2.3029    6.3905 C   0  0  0  0  0  0  0  0  0  0  0  0
    4.9840    0.4469    5.6368 N   0  0  0  0  0  0  0  0  0  0  0  0
    3.9709    0.4521    5.6620 H   0  0  0  0  0  0  0  0  0  0  0  0
    3.9273    4.1150    6.2862 C   0  0  0  0  0  0  0  0  0  0  0  0
    2.7090    4.5097    6.8405 C   0  0  0  0  0  0  0  0  0  0  0  0
   -1.2332    3.8367    8.5146 H   0  0  0  0  0  0  0  0  0  0  0  0
    0.4718    3.4780    8.8890 H   0  0  0  0  0  0  0  0  0  0  0  0
   -0.4044    2.4813    7.7076 H   0  0  0  0  0  0  0  0  0  0  0  0
    0.2549    5.4805    7.3503 H   0  0  0  0  0  0  0  0  0  0  0  0
   -0.6130    4.4890    6.1757 H   0  0  0  0  0  0  0  0  0  0  0  0
    0.5890    2.8440    4.7681 H   0  0  0  0  0  0  0  0  0  0  0  0
    2.7452    2.1631    3.7578 H   0  0  0  0  0  0  0  0  0  0  0  0
    5.1219    2.5688    3.5266 H   0  0  0  0  0  0  0  0  0  0  0  0
    7.1049    3.2498    4.9631 H   0  0  0  0  0  0  0  0  0  0  0  0
    8.0377   -0.4664    6.2933 H   0  0  0  0  0  0  0  0  0  0  0  0
    7.2015   -2.2381    7.7294 H   0  0  0  0  0  0  0  0  0  0  0  0
    6.4675   -4.4137    8.6151 H   0  0  0  0  0  0  0  0  0  0  0  0
    4.7062   -6.1724    8.8490 H   0  0  0  0  0  0  0  0  0  0  0  0
    2.4225   -6.9969    8.3318 H   0  0  0  0  0  0  0  0  0  0  0  0
    0.8902   -5.6354    6.9022 H   0  0  0  0  0  0  0  0  0  0  0  0
    1.6365   -3.4540    5.9937 H   0  0  0  0  0  0  0  0  0  0  0  0
    3.3905   -1.7389    5.7445 H   0  0  0  0  0  0  0  0  0  0  0  0
    4.8724    4.4877    6.6854 H   0  0  0  0  0  0  0  0  0  0  0  0
    2.7056    5.1948    7.6939 H   0  0  0  0  0  0  0  0  0  0  0  0
  1  2  1  0
  1 27  1  0
  1 28  1  0
  1 29  1  0
  2  3  1  0
  2 30  1  0
  2 31  1  0
  3  4  2  0
  3 26  1  0
  4  5  1  0
  4 32  1  0
  5  6  2  0
  5 33  1  0
  6  7  1  0
  6 25  1  0
  7  8  1  0
  7  9  1  0
  7 34  1  6
  8 35  1  0
  9 10  2  0
  9 23  1  0
 10 11  1  0
 11 12  2  0
 11 36  1  0
 12 13  1  0
 12 23  1  0
 13 14  2  0
 13 22  1  0
 14 15  1  0
 14 37  1  0
 15 16  2  0
 15 38  1  0
 16 17  1  0
 16 21  1  0
 17 18  2  0
 17 39  1  0
 18 19  1  0
 18 40  1  0
 19 20  2  0
 19 41  1  0
 20 21  1  0
 20 42  1  0
 21 22  2  0
 22 43  1  0
 23 24  1  0
 25 26  2  0
 25 44  1  0
 26 45  1  0
M  END

