
     RDKit          3D

 52 55  0  0  0  0  0  0  0  0999 V2000
    1.9730    0.7360    1.0632 C   0  0  0  0  0  0  0  0  0  0  0  0
    2.5706    0.1587   -0.1367 N   0  0  0  0  0  0  0  0  0  0  0  0
    3.0231   -1.1899   -0.0298 C   0  0  0  0  0  0  0  0  0  0  0  0
    2.9048   -1.7937    1.0194 O   0  0  0  0  0  0  0  0  0  0  0  0
    3.6210   -1.7427   -1.2549 C   0  0  0  0  0  0  0  0  0  0  0  0
    4.1481   -3.0140   -1.4126 N   0  0  0  0  0  0  0  0  0  0  0  0
    4.0805   -3.8507   -0.4751 N   0  0  0  0  0  0  0  0  0  0  0  0
    4.6736   -5.1008   -0.7213 C   0  0  0  0  0  0  0  0  0  0  0  0
    5.4902   -5.4254   -1.8242 C   0  0  0  0  0  0  0  0  0  0  0  0
    6.0362   -6.6958   -1.9435 C   0  0  0  0  0  0  0  0  0  0  0  0
    5.7809   -7.6873   -0.9724 C   0  0  0  0  0  0  0  0  0  0  0  0
    6.3222   -8.9672   -1.1803 N   0  0  0  0  0  0  0  0  0  0  0  0
    6.7869   -9.8727   -0.2659 C   0  0  0  0  0  0  0  0  0  0  0  0
    7.0610   -9.5332    1.0852 C   0  0  0  0  0  0  0  0  0  0  0  0
    7.5789  -10.4602    1.9739 C   0  0  0  0  0  0  0  0  0  0  0  0
    7.8471  -11.7676    1.5488 C   0  0  0  0  0  0  0  0  0  0  0  0
    8.3965  -12.7435    2.4955 N   0  0  0  0  0  0  0  0  0  0  0  0
    8.5831  -12.3687    3.6438 O   0  0  0  0  0  0  0  0  0  0  0  0
    8.6321  -13.8666    2.0774 O   0  0  0  0  0  0  0  0  0  0  0  0
    7.6022  -12.1521    0.2354 C   0  0  0  0  0  0  0  0  0  0  0  0
    7.0765  -11.2188   -0.6545 C   0  0  0  0  0  0  0  0  0  0  0  0
    6.7465  -11.8000   -2.3014 S   0  0  1  0  0  0  0  0  0  0  0  0
    6.9928  -10.7229   -3.2743 O   0  0  0  0  0  0  0  0  0  0  0  0
    7.3450  -13.1075   -2.5053 O   0  0  0  0  0  0  0  0  0  0  0  0
    5.1153  -11.9561   -2.1854 O   0  0  0  0  0  0  0  0  0  0  0  0
    4.9535   -7.3714    0.1208 C   0  0  0  0  0  0  0  0  0  0  0  0
    4.4242   -6.0905    0.2461 C   0  0  0  0  0  0  0  0  0  0  0  0
    3.7273   -0.9774   -2.4163 C   0  0  0  0  0  0  0  0  0  0  0  0
    4.2738   -1.5050   -3.5054 O   0  0  0  0  0  0  0  0  0  0  0  0
    3.2537    0.3752   -2.4667 C   0  0  0  0  0  0  0  0  0  0  0  0
    3.3558    1.1507   -3.6409 C   0  0  0  0  0  0  0  0  0  0  0  0
    2.8912    2.4559   -3.6689 C   0  0  0  0  0  0  0  0  0  0  0  0
    2.3138    2.9990   -2.5086 C   0  0  0  0  0  0  0  0  0  0  0  0
    2.2013    2.2546   -1.3398 C   0  0  0  0  0  0  0  0  0  0  0  0
    2.6697    0.9210   -1.2884 C   0  0  0  0  0  0  0  0  0  0  0  0
    2.0005   -0.0325    1.8423 H   0  0  0  0  0  0  0  0  0  0  0  0
    0.9282    1.0322    0.8792 H   0  0  0  0  0  0  0  0  0  0  0  0
    2.5405    1.6178    1.4000 H   0  0  0  0  0  0  0  0  0  0  0  0
    5.7089   -4.6637   -2.5730 H   0  0  0  0  0  0  0  0  0  0  0  0
    6.6848   -6.9354   -2.7905 H   0  0  0  0  0  0  0  0  0  0  0  0
    6.4642   -9.2373   -2.1555 H   0  0  0  0  0  0  0  0  0  0  0  0
    6.8935   -8.5107    1.4199 H   0  0  0  0  0  0  0  0  0  0  0  0
    7.8017  -10.1857    3.0051 H   0  0  0  0  0  0  0  0  0  0  0  0
    7.8164  -13.1706   -0.0883 H   0  0  0  0  0  0  0  0  0  0  0  0
    4.7535  -11.9371   -3.0905 H   0  0  0  0  0  0  0  0  0  0  0  0
    4.7023   -8.1336    0.8594 H   0  0  0  0  0  0  0  0  0  0  0  0
    3.7831   -5.8252    1.0891 H   0  0  0  0  0  0  0  0  0  0  0  0
    4.5163   -2.4213   -3.2281 H   0  0  0  0  0  0  0  0  0  0  0  0
    3.8094    0.6936   -4.5215 H   0  0  0  0  0  0  0  0  0  0  0  0
    2.9716    3.0543   -4.5785 H   0  0  0  0  0  0  0  0  0  0  0  0
    1.9429    4.0272   -2.5169 H   0  0  0  0  0  0  0  0  0  0  0  0
    1.7476    2.7119   -0.4629 H   0  0  0  0  0  0  0  0  0  0  0  0
  1  2  1  0
  1 36  1  0
  1 37  1  0
  1 38  1  0
  2  3  1  0
  2 35  1  0
  3  4  2  0
  3  5  1  0
  5  6  1  0
  5 28  2  0
  6  7  2  0
  7  8  1  0
  8  9  2  0
  8 27  1  0
  9 10  1  0
  9 39  1  0
 10 11  2  0
 10 40  1  0
 11 12  1  0
 11 26  1  0
 12 13  1  0
 12 41  1  0
 13 14  2  0
 13 21  1  0
 14 15  1  0
 14 42  1  0
 15 16  2  0
 15 43  1  0
 16 17  1  0
 16 20  1  0
 17 18  2  0
 17 19  1  0
 20 21  2  0
 20 44  1  0
 21 22  1  0
 22 23  2  0
 22 24  2  0
 22 25  1  1
 25 45  1  0
 26 27  2  0
 26 46  1  0
 27 47  1  0
 28 29  1  0
 28 30  1  0
 29 48  1  0
 30 31  1  0
 30 35  2  0
 31 32  2  0
 31 49  1  0
 32 33  1  0
 32 50  1  0
 33 34  2  0
 33 51  1  0
 34 35  1  0
 34 52  1  0
M  CHG  2  17   1  19  -1
M  END

