
     RDKit          3D

 49 52  0  0  0  0  0  0  0  0999 V2000
    1.2802   -0.5595   -0.1358 O   0  0  0  0  0  0  0  0  0  0  0  0
    2.4293   -0.2462    0.1164 C   0  0  0  0  0  0  0  0  0  0  0  0
    2.9227    1.0224    0.2189 N   0  0  0  0  0  0  0  0  0  0  0  0
    2.2555    2.2478    0.0673 C   0  0  0  0  0  0  0  0  0  0  0  0
    0.8800    2.3408   -0.2191 C   0  0  0  0  0  0  0  0  0  0  0  0
    0.2873    3.5957   -0.3561 C   0  0  0  0  0  0  0  0  0  0  0  0
    1.0502    4.7581   -0.2013 C   0  0  0  0  0  0  0  0  0  0  0  0
    0.2664    6.3699   -0.3367 S   0  0  1  0  0  0  0  0  0  0  0  0
    1.3291    7.3379   -0.6176 O   0  0  0  0  0  0  0  0  0  0  0  0
   -0.9050    6.2082   -1.2004 O   0  0  0  0  0  0  0  0  0  0  0  0
   -0.3113    6.7356    1.1736 N   0  0  0  0  0  0  0  0  0  0  0  0
   -1.6150    6.2755    1.6644 C   0  0  0  0  0  0  0  0  0  0  0  0
   -1.7476    7.0507    2.9802 C   0  0  0  0  0  0  0  0  0  0  0  0
   -0.3022    7.1031    3.5008 C   0  0  0  0  0  0  0  0  0  0  0  0
    0.5461    7.2950    2.2305 C   0  0  0  0  0  0  0  0  0  0  0  0
    2.4215    4.6750    0.0660 C   0  0  0  0  0  0  0  0  0  0  0  0
    3.0171    3.4245    0.2021 C   0  0  0  0  0  0  0  0  0  0  0  0
    3.4810   -1.3414    0.3990 C   0  0  1  0  0  0  0  0  0  0  0  0
    3.4866   -2.4325   -0.6725 C   0  0  0  0  0  0  0  0  0  0  0  0
    4.7470   -2.0532   -1.4202 C   0  0  0  0  0  0  0  0  0  0  0  0
    5.1923   -2.6406   -2.6935 C   0  0  0  0  0  0  0  0  0  0  0  0
    6.4120   -2.2490   -3.2817 C   0  0  0  0  0  0  0  0  0  0  0  0
    6.8234   -2.8173   -4.4851 C   0  0  0  0  0  0  0  0  0  0  0  0
    6.0389   -3.7827   -5.1280 C   0  0  0  0  0  0  0  0  0  0  0  0
    4.8375   -4.1607   -4.5365 C   0  0  0  0  0  0  0  0  0  0  0  0
    4.0726   -5.0832   -5.1363 F   0  0  0  0  0  0  0  0  0  0  0  0
    4.4003   -3.6079   -3.3351 C   0  0  0  0  0  0  0  0  0  0  0  0
    5.4514   -1.1697   -0.8050 N   0  0  0  0  0  0  0  0  0  0  0  0
    4.8219   -0.8063    0.3841 O   0  0  0  0  0  0  0  0  0  0  0  0
    3.9247    1.0607    0.3951 H   0  0  0  0  0  0  0  0  0  0  0  0
    0.2975    1.4306   -0.3434 H   0  0  0  0  0  0  0  0  0  0  0  0
   -0.7716    3.6763   -0.6089 H   0  0  0  0  0  0  0  0  0  0  0  0
   -1.6239    5.1822    1.8480 H   0  0  0  0  0  0  0  0  0  0  0  0
   -2.4044    6.5043    0.9356 H   0  0  0  0  0  0  0  0  0  0  0  0
   -2.4457    6.5722    3.6832 H   0  0  0  0  0  0  0  0  0  0  0  0
   -2.1180    8.0687    2.7753 H   0  0  0  0  0  0  0  0  0  0  0  0
   -0.0442    6.1457    3.9832 H   0  0  0  0  0  0  0  0  0  0  0  0
   -0.1335    7.9011    4.2392 H   0  0  0  0  0  0  0  0  0  0  0  0
    1.5140    6.7700    2.2987 H   0  0  0  0  0  0  0  0  0  0  0  0
    0.7613    8.3566    2.0248 H   0  0  0  0  0  0  0  0  0  0  0  0
    3.0142    5.5882    0.1403 H   0  0  0  0  0  0  0  0  0  0  0  0
    4.0897    3.3541    0.4039 H   0  0  0  0  0  0  0  0  0  0  0  0
    3.2884   -1.7250    1.4128 H   0  0  0  0  0  0  0  0  0  0  0  0
    2.5727   -2.4021   -1.2827 H   0  0  0  0  0  0  0  0  0  0  0  0
    3.5788   -3.4484   -0.2539 H   0  0  0  0  0  0  0  0  0  0  0  0
    7.0239   -1.4983   -2.7804 H   0  0  0  0  0  0  0  0  0  0  0  0
    7.7696   -2.5080   -4.9353 H   0  0  0  0  0  0  0  0  0  0  0  0
    6.3416   -4.2407   -6.0714 H   0  0  0  0  0  0  0  0  0  0  0  0
    3.4468   -3.9423   -2.9242 H   0  0  0  0  0  0  0  0  0  0  0  0
  1  2  2  0
  2  3  1  0
  2 18  1  0
  3  4  1  0
  3 30  1  0
  4  5  2  0
  4 17  1  0
  5  6  1  0
  5 31  1  0
  6  7  2  0
  6 32  1  0
  8  7  1  1
  7 16  1  0
  8  9  2  0
  8 10  2  0
  8 11  1  0
 11 12  1  0
 11 15  1  0
 12 13  1  0
 12 33  1  0
 12 34  1  0
 13 14  1  0
 13 35  1  0
 13 36  1  0
 14 15  1  0
 14 37  1  0
 14 38  1  0
 15 39  1  0
 15 40  1  0
 16 17  2  0
 16 41  1  0
 17 42  1  0
 18 19  1  0
 18 29  1  0
 18 43  1  1
 19 20  1  0
 19 44  1  0
 19 45  1  0
 20 21  1  0
 20 28  2  0
 21 22  2  0
 21 27  1  0
 22 23  1  0
 22 46  1  0
 23 24  2  0
 23 47  1  0
 24 25  1  0
 24 48  1  0
 25 26  1  0
 25 27  2  0
 27 49  1  0
 28 29  1  0
M  END

