
     RDKit          3D

 57 59  0  0  0  0  0  0  0  0999 V2000
    2.1733   -0.1115    1.8025 C   0  0  0  0  0  0  0  0  0  0  0  0
    3.2286   -0.1416    0.8812 O   0  0  0  0  0  0  0  0  0  0  0  0
    3.1975    0.9061   -0.0593 C   0  0  0  0  0  0  0  0  0  0  0  0
    4.3823    0.6935   -0.9964 C   0  0  0  0  0  0  0  0  0  0  0  0
    4.6759    1.6920   -2.1533 C   0  0  1  0  0  0  0  0  0  0  0  0
    5.8044    1.1145   -2.9196 N   0  0  0  0  0  0  0  0  0  0  0  0
    5.7603   -0.0383   -3.6546 C   0  0  0  0  0  0  0  0  0  0  0  0
    4.7473   -0.7131   -3.7864 O   0  0  0  0  0  0  0  0  0  0  0  0
    7.0583   -0.4463   -4.3106 C   0  0  0  0  0  0  0  0  0  0  0  0
    7.1968   -1.7940   -4.6776 C   0  0  0  0  0  0  0  0  0  0  0  0
    8.3649   -2.2429   -5.2943 C   0  0  0  0  0  0  0  0  0  0  0  0
    9.4036   -1.3460   -5.5679 C   0  0  0  0  0  0  0  0  0  0  0  0
    9.2661    0.0025   -5.2261 C   0  0  0  0  0  0  0  0  0  0  0  0
    8.0992    0.4505   -4.6012 C   0  0  0  0  0  0  0  0  0  0  0  0
    3.4797    1.9153   -3.1202 C   0  0  0  0  0  0  0  0  0  0  0  0
    2.4599    2.9635   -2.6567 C   0  0  0  0  0  0  0  0  0  0  0  0
    3.1116    4.2168   -2.2925 N   0  0  0  0  0  0  0  0  0  0  0  0
    2.8947    5.4507   -2.8437 C   0  0  0  0  0  0  0  0  0  0  0  0
    3.4482    6.4634   -2.4426 O   0  0  0  0  0  0  0  0  0  0  0  0
    1.8890    5.5610   -3.9960 C   0  0  0  0  0  0  0  0  0  0  0  0
    2.2733    4.7161   -5.0643 O   0  0  0  0  0  0  0  0  0  0  0  0
    1.5609    4.7498   -6.2292 C   0  0  0  0  0  0  0  0  0  0  0  0
    1.9960    3.8796   -7.2436 C   0  0  0  0  0  0  0  0  0  0  0  0
    1.3347    3.8375   -8.4677 C   0  0  0  0  0  0  0  0  0  0  0  0
    0.2340    4.6699   -8.6779 C   0  0  0  0  0  0  0  0  0  0  0  0
   -0.4046    4.6298   -9.8589 F   0  0  0  0  0  0  0  0  0  0  0  0
   -0.2104    5.5370   -7.6878 C   0  0  0  0  0  0  0  0  0  0  0  0
    0.4543    5.5804   -6.4554 C   0  0  0  0  0  0  0  0  0  0  0  0
    4.1125    4.0718   -1.2432 C   0  0  0  0  0  0  0  0  0  0  0  0
    5.1940    3.0710   -1.6618 C   0  0  0  0  0  0  0  0  0  0  0  0
    2.2956   -0.9668    2.4833 H   0  0  0  0  0  0  0  0  0  0  0  0
    1.1838   -0.1953    1.3073 H   0  0  0  0  0  0  0  0  0  0  0  0
    2.1710    0.8203    2.4055 H   0  0  0  0  0  0  0  0  0  0  0  0
    3.2443    1.8827    0.4652 H   0  0  0  0  0  0  0  0  0  0  0  0
    2.2377    0.8853   -0.6156 H   0  0  0  0  0  0  0  0  0  0  0  0
    4.2483   -0.2977   -1.4527 H   0  0  0  0  0  0  0  0  0  0  0  0
    5.2873    0.6338   -0.3685 H   0  0  0  0  0  0  0  0  0  0  0  0
    6.7220    1.4866   -2.7067 H   0  0  0  0  0  0  0  0  0  0  0  0
    6.3674   -2.4725   -4.4692 H   0  0  0  0  0  0  0  0  0  0  0  0
    8.4659   -3.2964   -5.5673 H   0  0  0  0  0  0  0  0  0  0  0  0
   10.3172   -1.6964   -6.0551 H   0  0  0  0  0  0  0  0  0  0  0  0
   10.0660    0.7112   -5.4551 H   0  0  0  0  0  0  0  0  0  0  0  0
    7.9949    1.5141   -4.3714 H   0  0  0  0  0  0  0  0  0  0  0  0
    2.9793    0.9581   -3.3203 H   0  0  0  0  0  0  0  0  0  0  0  0
    3.8929    2.2651   -4.0793 H   0  0  0  0  0  0  0  0  0  0  0  0
    1.8861    2.6029   -1.7850 H   0  0  0  0  0  0  0  0  0  0  0  0
    1.7428    3.1315   -3.4661 H   0  0  0  0  0  0  0  0  0  0  0  0
    1.9050    6.6195   -4.2986 H   0  0  0  0  0  0  0  0  0  0  0  0
    0.8674    5.3130   -3.6454 H   0  0  0  0  0  0  0  0  0  0  0  0
    2.8605    3.2413   -7.0513 H   0  0  0  0  0  0  0  0  0  0  0  0
    1.6603    3.1666   -9.2651 H   0  0  0  0  0  0  0  0  0  0  0  0
   -1.0736    6.1765   -7.8828 H   0  0  0  0  0  0  0  0  0  0  0  0
    0.0971    6.2669   -5.6880 H   0  0  0  0  0  0  0  0  0  0  0  0
    3.6161    3.7568   -0.3091 H   0  0  0  0  0  0  0  0  0  0  0  0
    4.5522    5.0606   -1.0647 H   0  0  0  0  0  0  0  0  0  0  0  0
    5.9037    2.9267   -0.8288 H   0  0  0  0  0  0  0  0  0  0  0  0
    5.7566    3.5289   -2.4931 H   0  0  0  0  0  0  0  0  0  0  0  0
  1  2  1  0
  1 31  1  0
  1 32  1  0
  1 33  1  0
  2  3  1  0
  3  4  1  0
  3 34  1  0
  3 35  1  0
  4  5  1  0
  4 36  1  0
  4 37  1  0
  5  6  1  6
  5 15  1  0
  5 30  1  0
  6  7  1  0
  6 38  1  0
  7  8  2  0
  7  9  1  0
  9 10  2  0
  9 14  1  0
 10 11  1  0
 10 39  1  0
 11 12  2  0
 11 40  1  0
 12 13  1  0
 12 41  1  0
 13 14  2  0
 13 42  1  0
 14 43  1  0
 15 16  1  0
 15 44  1  0
 15 45  1  0
 16 17  1  0
 16 46  1  0
 16 47  1  0
 17 18  1  0
 17 29  1  0
 18 19  2  0
 18 20  1  0
 20 21  1  0
 20 48  1  0
 20 49  1  0
 21 22  1  0
 22 23  2  0
 22 28  1  0
 23 24  1  0
 23 50  1  0
 24 25  2  0
 24 51  1  0
 25 26  1  0
 25 27  1  0
 27 28  2  0
 27 52  1  0
 28 53  1  0
 29 30  1  0
 29 54  1  0
 29 55  1  0
 30 56  1  0
 30 57  1  0
M  END

