
     RDKit          3D

 35 35  0  0  0  0  0  0  0  0999 V2000
    3.8843   -2.1030    3.0954 C   0  0  0  0  0  0  0  0  0  0  0  0
    3.2707   -1.0946    2.1152 C   0  0  2  0  0  0  0  0  0  0  0  0
    1.8198   -0.7616    2.4784 C   0  0  0  0  0  0  0  0  0  0  0  0
    3.3940   -1.5459    0.6412 C   0  0  2  0  0  0  0  0  0  0  0  0
    2.9199   -0.7812    0.0079 H   0  0  0  0  0  0  0  0  0  0  0  0
    2.7172   -2.8075    0.3385 N   0  0  0  0  0  0  0  0  0  0  0  0
    1.5201   -2.9410   -0.3483 C   0  0  0  0  0  0  0  0  0  0  0  0
    0.8466   -3.9446   -0.3155 O   0  0  0  0  0  0  0  0  0  0  0  0
    1.2398   -1.8425   -1.0738 O   0  0  0  0  0  0  0  0  0  0  0  0
    0.0448   -1.8698   -1.8767 C   0  0  1  0  0  0  0  0  0  0  0  0
   -1.2218   -1.4722   -1.1160 C   0  0  0  0  0  0  0  0  0  0  0  0
   -2.1955   -1.1351   -2.2548 C   0  0  0  0  0  0  0  0  0  0  0  0
   -1.3162   -0.4841   -3.3615 C   0  0  0  0  0  0  0  0  0  0  0  0
    0.1520   -0.8326   -2.9996 C   0  0  0  0  0  0  0  0  0  0  0  0
    4.8690   -1.5754    0.1788 C   0  0  0  0  0  0  0  0  0  0  0  0
    5.6798   -0.7665    0.5434 O   0  0  0  0  0  0  0  0  0  0  0  0
    5.1651   -2.5441   -0.6972 O   0  0  0  0  0  0  0  0  0  0  0  0
    3.8452   -1.7110    4.1235 H   0  0  0  0  0  0  0  0  0  0  0  0
    4.9406   -2.3075    2.8616 H   0  0  0  0  0  0  0  0  0  0  0  0
    3.3348   -3.0611    3.1040 H   0  0  0  0  0  0  0  0  0  0  0  0
    3.8703   -0.1721    2.1701 H   0  0  0  0  0  0  0  0  0  0  0  0
    1.1747   -1.6554    2.4349 H   0  0  0  0  0  0  0  0  0  0  0  0
    1.3937   -0.0072    1.7980 H   0  0  0  0  0  0  0  0  0  0  0  0
    1.7579   -0.3633    3.5033 H   0  0  0  0  0  0  0  0  0  0  0  0
    2.8409   -3.5637    1.0068 H   0  0  0  0  0  0  0  0  0  0  0  0
   -0.0694   -2.8898   -2.2747 H   0  0  0  0  0  0  0  0  0  0  0  0
   -1.0005   -0.5771   -0.5085 H   0  0  0  0  0  0  0  0  0  0  0  0
   -1.5789   -2.2643   -0.4420 H   0  0  0  0  0  0  0  0  0  0  0  0
   -3.0214   -0.4859   -1.9278 H   0  0  0  0  0  0  0  0  0  0  0  0
   -2.6539   -2.0633   -2.6337 H   0  0  0  0  0  0  0  0  0  0  0  0
   -1.4573    0.6070   -3.3932 H   0  0  0  0  0  0  0  0  0  0  0  0
   -1.5915   -0.8609   -4.3582 H   0  0  0  0  0  0  0  0  0  0  0  0
    0.6786    0.0489   -2.6001 H   0  0  0  0  0  0  0  0  0  0  0  0
    0.7390   -1.2001   -3.8546 H   0  0  0  0  0  0  0  0  0  0  0  0
    4.3583   -3.0817   -0.8124 H   0  0  0  0  0  0  0  0  0  0  0  0
  1  2  1  0
  1 18  1  0
  1 19  1  0
  1 20  1  0
  2  3  1  0
  2  4  1  0
  2 21  1  6
  3 22  1  0
  3 23  1  0
  3 24  1  0
  4  5  1  6
  4  6  1  0
  4 15  1  0
  6  7  1  0
  6 25  1  0
  7  8  2  0
  7  9  1  0
  9 10  1  0
 10 11  1  0
 10 14  1  0
 10 26  1  6
 11 12  1  0
 11 27  1  0
 11 28  1  0
 12 13  1  0
 12 29  1  0
 12 30  1  0
 13 14  1  0
 13 31  1  0
 13 32  1  0
 14 33  1  0
 14 34  1  0
 15 16  2  0
 15 17  1  0
 17 35  1  0
M  END

