
     RDKit          3D

 41 44  0  0  0  0  0  0  0  0999 V2000
    2.3935   -0.3567   -1.6542 O   0  0  0  0  0  0  0  0  0  0  0  0
    3.3367   -0.2306   -0.9152 C   0  0  0  0  0  0  0  0  0  0  0  0
    4.1392   -1.3044   -0.2467 C   0  0  0  0  0  0  0  0  0  0  0  0
    3.7250   -2.9992   -0.3960 S   0  0  0  0  0  0  0  0  0  0  0  0
    3.4889   -3.1966   -2.1673 C   0  0  0  0  0  0  0  0  0  0  0  0
    4.5220   -2.9018   -3.0679 C   0  0  0  0  0  0  0  0  0  0  0  0
    4.3327   -3.1272   -4.4332 C   0  0  0  0  0  0  0  0  0  0  0  0
    3.1292   -3.6681   -4.8980 C   0  0  0  0  0  0  0  0  0  0  0  0
    2.1090   -3.9768   -3.9934 C   0  0  0  0  0  0  0  0  0  0  0  0
    2.2817   -3.7355   -2.6278 C   0  0  0  0  0  0  0  0  0  0  0  0
    5.0788   -0.7316    0.5673 C   0  0  0  0  0  0  0  0  0  0  0  0
    6.0760   -1.3090    1.4348 C   0  0  0  0  0  0  0  0  0  0  0  0
    7.0467   -0.6335    2.1696 C   0  0  0  0  0  0  0  0  0  0  0  0
    7.8950   -1.4969    2.9055 C   0  0  0  0  0  0  0  0  0  0  0  0
    7.5691   -2.8240    2.7426 C   0  0  0  0  0  0  0  0  0  0  0  0
    6.2276   -3.0443    1.6850 S   0  0  0  0  0  0  0  0  0  0  0  0
    4.9456    0.7704    0.4075 C   0  0  0  0  0  0  0  0  0  0  0  0
    5.6064    1.6334    0.9342 O   0  0  0  0  0  0  0  0  0  0  0  0
    3.8962    1.0003   -0.4990 N   0  0  0  0  0  0  0  0  0  0  0  0
    3.4504    2.2816   -0.9273 C   0  0  0  0  0  0  0  0  0  0  0  0
    3.0307    2.4727   -2.2527 C   0  0  0  0  0  0  0  0  0  0  0  0
    2.5779    3.7273   -2.6636 C   0  0  0  0  0  0  0  0  0  0  0  0
    2.5522    4.8020   -1.7742 C   0  0  0  0  0  0  0  0  0  0  0  0
    2.9818    4.6087   -0.4566 C   0  0  0  0  0  0  0  0  0  0  0  0
    3.0107    5.7762    0.5001 C   0  0  1  0  0  0  0  0  0  0  0  0
    2.0106    6.6427    0.2565 F   0  0  0  0  0  0  0  0  0  0  0  0
    2.9012    5.3819    1.7805 F   0  0  0  0  0  0  0  0  0  0  0  0
    4.1606    6.4703    0.3993 F   0  0  0  0  0  0  0  0  0  0  0  0
    3.4203    3.3545   -0.0253 C   0  0  0  0  0  0  0  0  0  0  0  0
    5.4701   -2.5030   -2.7000 H   0  0  0  0  0  0  0  0  0  0  0  0
    5.1357   -2.8903   -5.1360 H   0  0  0  0  0  0  0  0  0  0  0  0
    2.9874   -3.8499   -5.9662 H   0  0  0  0  0  0  0  0  0  0  0  0
    1.1655   -4.3955   -4.3522 H   0  0  0  0  0  0  0  0  0  0  0  0
    1.4781   -3.9493   -1.9202 H   0  0  0  0  0  0  0  0  0  0  0  0
    7.1241    0.4518    2.1569 H   0  0  0  0  0  0  0  0  0  0  0  0
    8.7154   -1.1510    3.5358 H   0  0  0  0  0  0  0  0  0  0  0  0
    8.0521   -3.6924    3.1897 H   0  0  0  0  0  0  0  0  0  0  0  0
    3.0421    1.6385   -2.9525 H   0  0  0  0  0  0  0  0  0  0  0  0
    2.2428    3.8651   -3.6941 H   0  0  0  0  0  0  0  0  0  0  0  0
    2.1969    5.7823   -2.0959 H   0  0  0  0  0  0  0  0  0  0  0  0
    3.7444    3.2170    1.0039 H   0  0  0  0  0  0  0  0  0  0  0  0
  1  2  2  0
  2  3  1  0
  2 19  1  0
  3  4  2  0
  3 11  1  0
  4  5  1  0
  5  6  2  0
  5 10  1  0
  6  7  1  0
  6 30  1  0
  7  8  2  0
  7 31  1  0
  8  9  1  0
  8 32  1  0
  9 10  2  0
  9 33  1  0
 10 34  1  0
 11 12  1  0
 11 17  2  0
 12 13  2  0
 12 16  1  0
 13 14  1  0
 13 35  1  0
 14 15  2  0
 14 36  1  0
 15 16  1  0
 15 37  1  0
 17 18  1  0
 17 19  1  0
 19 20  1  0
 20 21  2  0
 20 29  1  0
 21 22  1  0
 21 38  1  0
 22 23  2  0
 22 39  1  0
 23 24  1  0
 23 40  1  0
 24 25  1  0
 24 29  2  0
 25 26  1  6
 25 27  1  0
 25 28  1  0
 29 41  1  0
M  CHG  2   4   1  18  -1
M  END

