
     RDKit          3D

 42 43  0  0  0  0  0  0  0  0999 V2000
   -0.1733   -1.5456    3.6754 C   0  0  0  0  0  0  0  0  0  0  0  0
    0.6364   -2.4457    4.4015 O   0  0  0  0  0  0  0  0  0  0  0  0
    1.4007   -3.3421    3.7308 C   0  0  0  0  0  0  0  0  0  0  0  0
    1.4819   -3.4207    2.3374 C   0  0  0  0  0  0  0  0  0  0  0  0
    2.2749   -4.4028    1.7271 C   0  0  0  0  0  0  0  0  0  0  0  0
    2.2996   -4.4142   -0.1912 Br  0  0  0  0  0  0  0  0  0  0  0  0
    3.0129   -5.3266    2.4746 C   0  0  0  0  0  0  0  0  0  0  0  0
    3.8771   -6.4209    1.8809 C   0  0  0  0  0  0  0  0  0  0  0  0
    3.2763   -7.8009    2.1041 C   0  0  0  0  0  0  0  0  0  0  0  0
    3.6959   -8.6144    2.8905 O   0  0  0  0  0  0  0  0  0  0  0  0
    2.1968   -7.9914    1.3242 O   0  0  0  0  0  0  0  0  0  0  0  0
    1.4729   -9.2363    1.4472 C   0  0  2  0  0  0  0  0  0  0  0  0
    1.5985   -9.5959    2.4796 H   0  0  0  0  0  0  0  0  0  0  0  0
    2.0785  -10.2628    0.4884 C   0  0  0  0  0  0  0  0  0  0  0  0
    0.0074   -8.9584    1.1752 C   0  0  0  0  0  0  0  0  0  0  0  0
   -0.9705   -9.7839    1.7499 C   0  0  0  0  0  0  0  0  0  0  0  0
   -2.3273   -9.5917    1.4806 C   0  0  0  0  0  0  0  0  0  0  0  0
   -2.7009   -8.5532    0.6309 C   0  0  0  0  0  0  0  0  0  0  0  0
   -4.0029   -8.3562    0.3704 F   0  0  0  0  0  0  0  0  0  0  0  0
   -1.7552   -7.7103    0.0525 C   0  0  0  0  0  0  0  0  0  0  0  0
   -0.4013   -7.9187    0.3265 C   0  0  0  0  0  0  0  0  0  0  0  0
    2.9247   -5.2185    3.8759 C   0  0  0  0  0  0  0  0  0  0  0  0
    2.1468   -4.2588    4.5160 C   0  0  0  0  0  0  0  0  0  0  0  0
    2.0735   -4.2724    5.8757 O   0  0  0  0  0  0  0  0  0  0  0  0
    2.5639   -3.1389    6.5787 C   0  0  0  0  0  0  0  0  0  0  0  0
   -0.7126   -0.9430    4.4181 H   0  0  0  0  0  0  0  0  0  0  0  0
   -0.9065   -2.0771    3.0434 H   0  0  0  0  0  0  0  0  0  0  0  0
    0.4288   -0.8741    3.0373 H   0  0  0  0  0  0  0  0  0  0  0  0
    0.9224   -2.7304    1.7092 H   0  0  0  0  0  0  0  0  0  0  0  0
    4.8654   -6.4265    2.3609 H   0  0  0  0  0  0  0  0  0  0  0  0
    4.0061   -6.2609    0.8021 H   0  0  0  0  0  0  0  0  0  0  0  0
    1.5267  -11.2130    0.5516 H   0  0  0  0  0  0  0  0  0  0  0  0
    3.1299  -10.4550    0.7496 H   0  0  0  0  0  0  0  0  0  0  0  0
    2.0223   -9.9005   -0.5497 H   0  0  0  0  0  0  0  0  0  0  0  0
   -0.6712  -10.5901    2.4260 H   0  0  0  0  0  0  0  0  0  0  0  0
   -3.0965  -10.2260    1.9254 H   0  0  0  0  0  0  0  0  0  0  0  0
   -2.0874   -6.9008   -0.6006 H   0  0  0  0  0  0  0  0  0  0  0  0
    0.3462   -7.2537   -0.1093 H   0  0  0  0  0  0  0  0  0  0  0  0
    3.4744   -5.9198    4.5084 H   0  0  0  0  0  0  0  0  0  0  0  0
    2.4793   -3.3748    7.6486 H   0  0  0  0  0  0  0  0  0  0  0  0
    1.9777   -2.2333    6.3592 H   0  0  0  0  0  0  0  0  0  0  0  0
    3.6265   -2.9522    6.3382 H   0  0  0  0  0  0  0  0  0  0  0  0
  1  2  1  0
  1 26  1  0
  1 27  1  0
  1 28  1  0
  2  3  1  0
  3  4  2  0
  3 23  1  0
  4  5  1  0
  4 29  1  0
  5  6  1  0
  5  7  2  0
  7  8  1  0
  7 22  1  0
  8  9  1  0
  8 30  1  0
  8 31  1  0
  9 10  2  0
  9 11  1  0
 11 12  1  0
 12 13  1  1
 12 14  1  0
 12 15  1  0
 14 32  1  0
 14 33  1  0
 14 34  1  0
 15 16  2  0
 15 21  1  0
 16 17  1  0
 16 35  1  0
 17 18  2  0
 17 36  1  0
 18 19  1  0
 18 20  1  0
 20 21  2  0
 20 37  1  0
 21 38  1  0
 22 23  2  0
 22 39  1  0
 23 24  1  0
 24 25  1  0
 25 40  1  0
 25 41  1  0
 25 42  1  0
M  END

