
     RDKit          3D

 43 46  0  0  0  0  0  0  0  0999 V2000
    2.2398    0.2440    1.2578 C   0  0  0  0  0  0  0  0  0  0  0  0
    2.7420    0.0402   -0.0444 O   0  0  0  0  0  0  0  0  0  0  0  0
    3.0242    1.1120   -0.8243 C   0  0  0  0  0  0  0  0  0  0  0  0
    2.8546    2.4511   -0.4346 C   0  0  0  0  0  0  0  0  0  0  0  0
    3.1789    3.4803   -1.3187 C   0  0  0  0  0  0  0  0  0  0  0  0
    3.6771    3.2136   -2.6045 C   0  0  0  0  0  0  0  0  0  0  0  0
    4.0049    4.3312   -3.4945 C   0  0  0  0  0  0  0  0  0  0  0  0
    3.8042    5.6104   -3.2308 N   0  0  0  0  0  0  0  0  0  0  0  0
    4.2459    6.3237   -4.3186 C   0  0  0  0  0  0  0  0  0  0  0  0
    4.1275    7.7875   -4.3826 C   0  0  0  0  0  0  0  0  0  0  0  0
    3.9731    8.5169   -5.6153 C   0  0  0  0  0  0  0  0  0  0  0  0
    3.8574    9.8645   -5.4224 C   0  0  0  0  0  0  0  0  0  0  0  0
    3.6468   11.0799   -6.6334 Cl  0  0  0  0  0  0  0  0  0  0  0  0
    3.9302   10.2870   -3.7368 S   0  0  0  0  0  0  0  0  0  0  0  0
    4.1211    8.6162   -3.2712 C   0  0  0  0  0  0  0  0  0  0  0  0
    4.2323    8.2718   -1.8157 C   0  0  0  0  0  0  0  0  0  0  0  0
    4.7455    5.4449   -5.2862 C   0  0  0  0  0  0  0  0  0  0  0  0
    5.3984    5.6382   -6.5862 C   0  0  0  0  0  0  0  0  0  0  0  0
    6.4606    6.5911   -6.7878 C   0  0  0  0  0  0  0  0  0  0  0  0
    6.9439    6.5759   -8.0648 C   0  0  0  0  0  0  0  0  0  0  0  0
    8.2171    7.5430   -8.7139 Cl  0  0  0  0  0  0  0  0  0  0  0  0
    6.1255    5.4044   -9.0613 S   0  0  0  0  0  0  0  0  0  0  0  0
    5.0986    4.9211   -7.7347 C   0  0  0  0  0  0  0  0  0  0  0  0
    4.0448    3.8747   -7.9530 C   0  0  0  0  0  0  0  0  0  0  0  0
    4.5643    4.1878   -4.7364 N   0  0  0  0  0  0  0  0  0  0  0  0
    4.8984    3.3281   -5.1520 H   0  0  0  0  0  0  0  0  0  0  0  0
    3.8358    1.8647   -2.9823 C   0  0  0  0  0  0  0  0  0  0  0  0
    3.5181    0.8307   -2.1106 C   0  0  0  0  0  0  0  0  0  0  0  0
    2.0886   -0.7525    1.6940 H   0  0  0  0  0  0  0  0  0  0  0  0
    1.2735    0.7798    1.2468 H   0  0  0  0  0  0  0  0  0  0  0  0
    2.9507    0.8066    1.8894 H   0  0  0  0  0  0  0  0  0  0  0  0
    2.4710    2.7030    0.5542 H   0  0  0  0  0  0  0  0  0  0  0  0
    3.0472    4.5217   -1.0205 H   0  0  0  0  0  0  0  0  0  0  0  0
    3.9309    8.0551   -6.6003 H   0  0  0  0  0  0  0  0  0  0  0  0
    4.5387    9.1461   -1.2210 H   0  0  0  0  0  0  0  0  0  0  0  0
    4.9645    7.4665   -1.6614 H   0  0  0  0  0  0  0  0  0  0  0  0
    3.2730    7.9027   -1.4175 H   0  0  0  0  0  0  0  0  0  0  0  0
    6.8444    7.2461   -6.0068 H   0  0  0  0  0  0  0  0  0  0  0  0
    3.5549    3.9957   -8.9319 H   0  0  0  0  0  0  0  0  0  0  0  0
    3.2669    3.9481   -7.1789 H   0  0  0  0  0  0  0  0  0  0  0  0
    4.4556    2.8493   -7.9261 H   0  0  0  0  0  0  0  0  0  0  0  0
    4.2061    1.6031   -3.9775 H   0  0  0  0  0  0  0  0  0  0  0  0
    3.6398   -0.2142   -2.4024 H   0  0  0  0  0  0  0  0  0  0  0  0
  1  2  1  0
  1 29  1  0
  1 30  1  0
  1 31  1  0
  2  3  1  0
  3  4  2  0
  3 28  1  0
  4  5  1  0
  4 32  1  0
  5  6  2  0
  5 33  1  0
  6  7  1  0
  6 27  1  0
  7  8  2  0
  7 25  1  0
  8  9  1  0
  9 10  1  0
  9 17  2  0
 10 11  1  0
 10 15  2  0
 11 12  2  0
 11 34  1  0
 12 13  1  0
 12 14  1  0
 14 15  1  0
 15 16  1  0
 16 35  1  0
 16 36  1  0
 16 37  1  0
 17 18  1  0
 17 25  1  0
 18 19  1  0
 18 23  2  0
 19 20  2  0
 19 38  1  0
 20 21  1  0
 20 22  1  0
 22 23  1  0
 23 24  1  0
 24 39  1  0
 24 40  1  0
 24 41  1  0
 25 26  1  0
 27 28  2  0
 27 42  1  0
 28 43  1  0
M  END

