
     RDKit          3D

 56 61  0  0  0  0  0  0  0  0999 V2000
    0.9896    0.5201   -0.0764 C   0  0  0  0  0  0  0  0  0  0  0  0
    2.4670    0.0453   -0.0921 C   0  0  1  0  0  0  0  0  0  0  0  0
    2.8862   -0.2853   -1.5494 C   0  0  0  0  0  0  0  0  0  0  0  0
    3.3615    1.1733    0.4414 C   0  0  0  0  0  0  0  0  0  0  0  0
    3.3683    2.4144   -0.2140 C   0  0  0  0  0  0  0  0  0  0  0  0
    4.1541    3.4865    0.2073 C   0  0  0  0  0  0  0  0  0  0  0  0
    4.9693    3.3212    1.3280 C   0  0  0  0  0  0  0  0  0  0  0  0
    4.9884    2.1042    2.0028 C   0  0  0  0  0  0  0  0  0  0  0  0
    4.1921    1.0187    1.5749 C   0  0  0  0  0  0  0  0  0  0  0  0
    4.2322   -0.1999    2.2765 N   0  0  0  0  0  0  0  0  0  0  0  0
    5.0907   -0.3207    3.4167 C   0  0  0  0  0  0  0  0  0  0  0  0
    4.6171    0.0039    4.6969 C   0  0  0  0  0  0  0  0  0  0  0  0
    5.4493   -0.1122    5.8069 C   0  0  0  0  0  0  0  0  0  0  0  0
    6.7755   -0.5577    5.6519 C   0  0  0  0  0  0  0  0  0  0  0  0
    7.6295   -0.6716    6.8292 C   0  0  0  0  0  0  0  0  0  0  0  0
    7.3350   -0.4109    8.0700 N   0  0  0  0  0  0  0  0  0  0  0  0
    8.4605   -0.6696    8.8123 N   0  0  0  0  0  0  0  0  0  0  0  0
    9.3795   -1.0739    7.9827 C   0  0  0  0  0  0  0  0  0  0  0  0
   10.7529   -1.4723    8.2726 C   0  0  0  0  0  0  0  0  0  0  0  0
   11.2078   -1.4389    9.6043 C   0  0  0  0  0  0  0  0  0  0  0  0
   12.5159   -1.8154    9.9022 C   0  0  0  0  0  0  0  0  0  0  0  0
   13.3816   -2.2276    8.8817 C   0  0  0  0  0  0  0  0  0  0  0  0
   12.9327   -2.2619    7.5578 C   0  0  0  0  0  0  0  0  0  0  0  0
   11.6241   -1.8865    7.2499 C   0  0  0  0  0  0  0  0  0  0  0  0
    8.9160   -1.0983    6.7022 O   0  0  0  0  0  0  0  0  0  0  0  0
    7.2495   -0.8830    4.3693 C   0  0  0  0  0  0  0  0  0  0  0  0
    6.4104   -0.7641    3.2617 C   0  0  0  0  0  0  0  0  0  0  0  0
    3.4491   -1.3022    1.8882 C   0  0  0  0  0  0  0  0  0  0  0  0
    3.5126   -2.5055    2.6253 C   0  0  0  0  0  0  0  0  0  0  0  0
    2.7498   -3.6122    2.2642 C   0  0  0  0  0  0  0  0  0  0  0  0
    1.9032   -3.5464    1.1567 C   0  0  0  0  0  0  0  0  0  0  0  0
    1.8411   -2.3579    0.4300 C   0  0  0  0  0  0  0  0  0  0  0  0
    2.5949   -1.2223    0.7646 C   0  0  0  0  0  0  0  0  0  0  0  0
    0.8534    1.4192   -0.6963 H   0  0  0  0  0  0  0  0  0  0  0  0
    0.6683    0.7618    0.9481 H   0  0  0  0  0  0  0  0  0  0  0  0
    0.3171   -0.2575   -0.4690 H   0  0  0  0  0  0  0  0  0  0  0  0
    2.7924    0.5971   -2.2005 H   0  0  0  0  0  0  0  0  0  0  0  0
    2.2549   -1.0805   -1.9745 H   0  0  0  0  0  0  0  0  0  0  0  0
    3.9323   -0.6255   -1.5868 H   0  0  0  0  0  0  0  0  0  0  0  0
    2.7320    2.5481   -1.0916 H   0  0  0  0  0  0  0  0  0  0  0  0
    4.1281    4.4354   -0.3330 H   0  0  0  0  0  0  0  0  0  0  0  0
    5.5972    4.1414    1.6854 H   0  0  0  0  0  0  0  0  0  0  0  0
    5.6294    1.9919    2.8760 H   0  0  0  0  0  0  0  0  0  0  0  0
    3.5875    0.3490    4.8112 H   0  0  0  0  0  0  0  0  0  0  0  0
    5.0894    0.1382    6.8063 H   0  0  0  0  0  0  0  0  0  0  0  0
   10.5209   -1.1152   10.3882 H   0  0  0  0  0  0  0  0  0  0  0  0
   12.8644   -1.7878   10.9375 H   0  0  0  0  0  0  0  0  0  0  0  0
   14.4068   -2.5222    9.1194 H   0  0  0  0  0  0  0  0  0  0  0  0
   13.6058   -2.5831    6.7592 H   0  0  0  0  0  0  0  0  0  0  0  0
   11.2726   -1.9128    6.2170 H   0  0  0  0  0  0  0  0  0  0  0  0
    8.2766   -1.2290    4.2421 H   0  0  0  0  0  0  0  0  0  0  0  0
    6.7734   -1.0154    2.2630 H   0  0  0  0  0  0  0  0  0  0  0  0
    4.1676   -2.5732    3.4927 H   0  0  0  0  0  0  0  0  0  0  0  0
    2.8217   -4.5282    2.8562 H   0  0  0  0  0  0  0  0  0  0  0  0
    1.2982   -4.4062    0.8605 H   0  0  0  0  0  0  0  0  0  0  0  0
    1.1772   -2.3109   -0.4361 H   0  0  0  0  0  0  0  0  0  0  0  0
  2  1  1  6
  1 34  1  0
  1 35  1  0
  1 36  1  0
  2  3  1  0
  2  4  1  0
  2 33  1  0
  3 37  1  0
  3 38  1  0
  3 39  1  0
  4  5  1  0
  4  9  2  0
  5  6  2  0
  5 40  1  0
  6  7  1  0
  6 41  1  0
  7  8  2  0
  7 42  1  0
  8  9  1  0
  8 43  1  0
  9 10  1  0
 10 11  1  0
 10 28  1  0
 11 12  2  0
 11 27  1  0
 12 13  1  0
 12 44  1  0
 13 14  2  0
 13 45  1  0
 14 15  1  0
 14 26  1  0
 15 16  2  0
 15 25  1  0
 16 17  1  0
 17 18  2  0
 18 19  1  0
 18 25  1  0
 19 20  2  0
 19 24  1  0
 20 21  1  0
 20 46  1  0
 21 22  2  0
 21 47  1  0
 22 23  1  0
 22 48  1  0
 23 24  2  0
 23 49  1  0
 24 50  1  0
 26 27  2  0
 26 51  1  0
 27 52  1  0
 28 29  1  0
 28 33  2  0
 29 30  2  0
 29 53  1  0
 30 31  1  0
 30 54  1  0
 31 32  2  0
 31 55  1  0
 32 33  1  0
 32 56  1  0
M  END

