
     RDKit          3D

 26 26  0  0  0  0  0  0  0  0999 V2000
    1.5596    1.6034    1.1770 C   0  0  0  0  0  0  0  0  0  0  0  0
    2.7003    0.8948    0.7308 O   0  0  0  0  0  0  0  0  0  0  0  0
    3.2379    1.5047   -0.3785 N   0  0  0  0  0  0  0  0  0  0  0  0
    4.3628    1.0180   -0.7460 C   0  0  0  0  0  0  0  0  0  0  0  0
    5.0678   -0.1010   -0.0446 C   0  0  0  0  0  0  0  0  0  0  0  0
    5.2887   -1.2068   -0.7652 N   0  0  0  0  0  0  0  0  0  0  0  0
    5.9125   -2.2520   -0.2323 C   0  0  0  0  0  0  0  0  0  0  0  0
    6.3727   -2.2421    1.0895 C   0  0  0  0  0  0  0  0  0  0  0  0
    7.1765   -3.6371    1.7514 Cl  0  0  0  0  0  0  0  0  0  0  0  0
    6.1905   -1.0952    1.8613 C   0  0  0  0  0  0  0  0  0  0  0  0
    5.5351   -0.0063    1.2839 C   0  0  0  0  0  0  0  0  0  0  0  0
    5.3620    1.4521    2.2155 Cl  0  0  0  0  0  0  0  0  0  0  0  0
    4.9632    1.5715   -2.0367 C   0  0  1  0  0  0  0  0  0  0  0  0
    4.3962    0.8088   -3.2524 C   0  0  0  0  0  0  0  0  0  0  0  0
    4.7747    3.0185   -2.0823 N   0  0  0  0  0  0  0  0  0  0  0  0
    1.1359    1.0074    1.9972 H   0  0  0  0  0  0  0  0  0  0  0  0
    0.8150    1.7076    0.3700 H   0  0  0  0  0  0  0  0  0  0  0  0
    1.8302    2.6051    1.5526 H   0  0  0  0  0  0  0  0  0  0  0  0
    6.0631   -3.1338   -0.8631 H   0  0  0  0  0  0  0  0  0  0  0  0
    6.5562   -1.0417    2.8872 H   0  0  0  0  0  0  0  0  0  0  0  0
    6.0486    1.3726   -1.9918 H   0  0  0  0  0  0  0  0  0  0  0  0
    3.3105    0.9818   -3.3281 H   0  0  0  0  0  0  0  0  0  0  0  0
    4.5724   -0.2731   -3.1622 H   0  0  0  0  0  0  0  0  0  0  0  0
    4.8740    1.1660   -4.1803 H   0  0  0  0  0  0  0  0  0  0  0  0
    3.7877    3.2309   -1.9310 H   0  0  0  0  0  0  0  0  0  0  0  0
    5.0149    3.3662   -3.0108 H   0  0  0  0  0  0  0  0  0  0  0  0
  1  2  1  0
  1 16  1  0
  1 17  1  0
  1 18  1  0
  2  3  1  0
  3  4  2  0
  4  5  1  0
  4 13  1  0
  5  6  2  0
  5 11  1  0
  6  7  1  0
  7  8  2  0
  7 19  1  0
  8  9  1  0
  8 10  1  0
 10 11  2  0
 10 20  1  0
 11 12  1  0
 13 14  1  0
 13 15  1  0
 13 21  1  1
 14 22  1  0
 14 23  1  0
 14 24  1  0
 15 25  1  0
 15 26  1  0
M  END

