
     RDKit          3D

 48 49  0  0  0  0  0  0  0  0999 V2000
    1.1488    2.2440   -0.1369 C   0  0  0  0  0  0  0  0  0  0  0  0
    2.6145    2.1936   -0.5663 C   0  0  0  0  0  0  0  0  0  0  0  0
    3.0395    0.8690   -1.0318 N   0  0  0  0  0  0  0  0  0  0  0  0
    2.4442    0.4313   -2.2683 C   0  0  0  0  0  0  0  0  0  0  0  0
    2.8536    1.1881   -3.5453 C   0  0  0  0  0  0  0  0  0  0  0  0
    3.6688    2.0683   -3.5940 O   0  0  0  0  0  0  0  0  0  0  0  0
    2.2249    0.7753   -4.6718 O   0  0  0  0  0  0  0  0  0  0  0  0
    4.4718    0.6325   -0.9375 C   0  0  1  0  0  0  0  0  0  0  0  0
    5.1058    0.6430    0.4776 C   0  0  0  0  0  0  0  0  0  0  0  0
    5.9489   -0.6032    0.0814 C   0  0  2  0  0  0  0  0  0  0  0  0
    7.3155   -0.3212   -0.2996 N   0  0  0  0  0  0  0  0  0  0  0  0
    8.3834   -1.0322    0.2021 C   0  0  0  0  0  0  0  0  0  0  0  0
    8.2578   -1.9366    1.0101 O   0  0  0  0  0  0  0  0  0  0  0  0
    9.6011   -0.5938   -0.3183 N   0  0  0  0  0  0  0  0  0  0  0  0
   10.8807   -1.0650   -0.0471 C   0  0  0  0  0  0  0  0  0  0  0  0
   11.0916   -2.1185    0.8658 C   0  0  0  0  0  0  0  0  0  0  0  0
   12.3792   -2.5660    1.1161 C   0  0  0  0  0  0  0  0  0  0  0  0
   12.5444   -3.5672    1.9876 F   0  0  0  0  0  0  0  0  0  0  0  0
   13.5067   -2.0191    0.5007 C   0  0  0  0  0  0  0  0  0  0  0  0
   13.3012   -0.9835   -0.3971 C   0  0  0  0  0  0  0  0  0  0  0  0
   12.0172   -0.4826   -0.6956 C   0  0  0  0  0  0  0  0  0  0  0  0
   12.0134    0.6287   -1.6858 C   0  0  0  0  0  0  0  0  0  0  0  0
   13.0026    1.0850   -2.2092 O   0  0  0  0  0  0  0  0  0  0  0  0
   10.7758    1.1275   -1.9843 O   0  0  0  0  0  0  0  0  0  0  0  0
   10.7437    2.1963   -2.9361 C   0  0  0  0  0  0  0  0  0  0  0  0
    4.9655   -0.8286   -1.1044 C   0  0  0  0  0  0  0  0  0  0  0  0
    0.9151    3.2302    0.2944 H   0  0  0  0  0  0  0  0  0  0  0  0
    0.9364    1.4733    0.6208 H   0  0  0  0  0  0  0  0  0  0  0  0
    0.4542    2.0930   -0.9792 H   0  0  0  0  0  0  0  0  0  0  0  0
    3.2384    2.4394    0.3067 H   0  0  0  0  0  0  0  0  0  0  0  0
    2.8182    2.9792   -1.3212 H   0  0  0  0  0  0  0  0  0  0  0  0
    1.3429    0.4779   -2.1922 H   0  0  0  0  0  0  0  0  0  0  0  0
    2.6818   -0.6350   -2.4382 H   0  0  0  0  0  0  0  0  0  0  0  0
    1.5964    0.0653   -4.4739 H   0  0  0  0  0  0  0  0  0  0  0  0
    5.0408    1.3029   -1.6128 H   0  0  0  0  0  0  0  0  0  0  0  0
    4.3608    0.3879    1.2465 H   0  0  0  0  0  0  0  0  0  0  0  0
    5.6637    1.5385    0.7909 H   0  0  0  0  0  0  0  0  0  0  0  0
    6.0034   -1.4095    0.8225 H   0  0  0  0  0  0  0  0  0  0  0  0
    7.4810    0.4138   -0.9770 H   0  0  0  0  0  0  0  0  0  0  0  0
    9.5841    0.1689   -0.9894 H   0  0  0  0  0  0  0  0  0  0  0  0
   10.2434   -2.5750    1.3691 H   0  0  0  0  0  0  0  0  0  0  0  0
   14.5007   -2.4050    0.7302 H   0  0  0  0  0  0  0  0  0  0  0  0
   14.1456   -0.5186   -0.9077 H   0  0  0  0  0  0  0  0  0  0  0  0
    9.6870    2.4653   -3.0591 H   0  0  0  0  0  0  0  0  0  0  0  0
   11.1708    1.8734   -3.8964 H   0  0  0  0  0  0  0  0  0  0  0  0
   11.3186    3.0591   -2.5699 H   0  0  0  0  0  0  0  0  0  0  0  0
    4.1802   -1.5481   -0.8256 H   0  0  0  0  0  0  0  0  0  0  0  0
    5.4083   -1.1226   -2.0685 H   0  0  0  0  0  0  0  0  0  0  0  0
  1  2  1  0
  1 27  1  0
  1 28  1  0
  1 29  1  0
  2  3  1  0
  2 30  1  0
  2 31  1  0
  3  4  1  0
  3  8  1  0
  4  5  1  0
  4 32  1  0
  4 33  1  0
  5  6  2  0
  5  7  1  0
  7 34  1  0
  8  9  1  0
  8 26  1  0
  8 35  1  6
  9 10  1  0
  9 36  1  0
  9 37  1  0
 10 11  1  0
 10 26  1  0
 10 38  1  1
 11 12  1  0
 11 39  1  0
 12 13  2  0
 12 14  1  0
 14 15  1  0
 14 40  1  0
 15 16  2  0
 15 21  1  0
 16 17  1  0
 16 41  1  0
 17 18  1  0
 17 19  2  0
 19 20  1  0
 19 42  1  0
 20 21  2  0
 20 43  1  0
 21 22  1  0
 22 23  2  0
 22 24  1  0
 24 25  1  0
 25 44  1  0
 25 45  1  0
 25 46  1  0
 26 47  1  0
 26 48  1  0
M  END

