
     RDKit          3D

 50 53  0  0  0  0  0  0  0  0999 V2000
   11.9818   -6.0130    1.3269 C   0  0  0  0  0  0  0  0  0  0  0  0
   11.2827   -5.2344    0.2379 C   0  0  0  0  0  0  0  0  0  0  0  0
   11.9566   -4.2609   -0.5072 C   0  0  0  0  0  0  0  0  0  0  0  0
   11.2849   -3.5494   -1.5110 C   0  0  0  0  0  0  0  0  0  0  0  0
    9.9443   -3.7978   -1.7822 C   0  0  0  0  0  0  0  0  0  0  0  0
    9.2562   -4.7744   -1.0398 C   0  0  0  0  0  0  0  0  0  0  0  0
    7.9478   -4.9573   -1.3666 O   0  0  0  0  0  0  0  0  0  0  0  0
    7.1793   -5.9191   -0.6706 C   0  0  0  0  0  0  0  0  0  0  0  0
    5.7782   -5.8794   -1.2644 C   0  0  0  0  0  0  0  0  0  0  0  0
    4.8294   -6.8454   -0.6326 C   0  0  0  0  0  0  0  0  0  0  0  0
    5.1748   -7.6491    0.3428 N   0  0  0  0  0  0  0  0  0  0  0  0
    4.0086   -8.3551    0.6156 O   0  0  0  0  0  0  0  0  0  0  0  0
    3.0706   -7.9027   -0.2289 C   0  0  0  0  0  0  0  0  0  0  0  0
    1.6990   -8.4813   -0.1466 C   0  0  1  0  0  0  0  0  0  0  0  0
    0.6054   -7.4615    0.2366 C   0  0  0  0  0  0  0  0  0  0  0  0
   -0.6817   -8.1672   -0.1889 C   0  0  0  0  0  0  0  0  0  0  0  0
   -0.2743   -8.9822   -1.3420 N   0  0  0  0  0  0  0  0  0  0  0  0
   -1.2598   -9.6090   -2.0484 C   0  0  0  0  0  0  0  0  0  0  0  0
   -2.4320   -9.5231   -1.6933 O   0  0  0  0  0  0  0  0  0  0  0  0
   -0.9211  -10.4077   -3.2920 C   0  0  0  0  0  0  0  0  0  0  0  0
   -1.9573  -11.1707   -3.8556 C   0  0  0  0  0  0  0  0  0  0  0  0
   -1.6972  -11.8942   -5.0174 C   0  0  0  0  0  0  0  0  0  0  0  0
   -0.4201  -11.8271   -5.5811 C   0  0  0  0  0  0  0  0  0  0  0  0
    0.5423  -11.0354   -4.9480 C   0  0  0  0  0  0  0  0  0  0  0  0
    0.3008  -10.3449   -3.8321 N   0  0  0  0  0  0  0  0  0  0  0  0
    1.1848   -9.0341   -1.4949 C   0  0  0  0  0  0  0  0  0  0  0  0
    3.5155   -6.9734   -1.0219 N   0  0  0  0  0  0  0  0  0  0  0  0
    9.9249   -5.4867   -0.0363 C   0  0  0  0  0  0  0  0  0  0  0  0
   13.0409   -5.7286    1.4105 H   0  0  0  0  0  0  0  0  0  0  0  0
   11.9377   -7.0983    1.1358 H   0  0  0  0  0  0  0  0  0  0  0  0
   11.5088   -5.8414    2.3087 H   0  0  0  0  0  0  0  0  0  0  0  0
   13.0109   -4.0557   -0.3046 H   0  0  0  0  0  0  0  0  0  0  0  0
   11.8191   -2.7903   -2.0886 H   0  0  0  0  0  0  0  0  0  0  0  0
    9.4030   -3.2550   -2.5596 H   0  0  0  0  0  0  0  0  0  0  0  0
    7.1483   -5.6928    0.4104 H   0  0  0  0  0  0  0  0  0  0  0  0
    7.6172   -6.9278   -0.7784 H   0  0  0  0  0  0  0  0  0  0  0  0
    5.8255   -6.0859   -2.3466 H   0  0  0  0  0  0  0  0  0  0  0  0
    5.3626   -4.8622   -1.1712 H   0  0  0  0  0  0  0  0  0  0  0  0
    1.7237   -9.2903    0.6002 H   0  0  0  0  0  0  0  0  0  0  0  0
    0.7567   -6.5378   -0.3441 H   0  0  0  0  0  0  0  0  0  0  0  0
    0.6185   -7.2012    1.3048 H   0  0  0  0  0  0  0  0  0  0  0  0
   -1.4897   -7.4767   -0.4720 H   0  0  0  0  0  0  0  0  0  0  0  0
   -1.0869   -8.8138    0.6100 H   0  0  0  0  0  0  0  0  0  0  0  0
   -2.9338  -11.1664   -3.3709 H   0  0  0  0  0  0  0  0  0  0  0  0
   -2.4800  -12.5007   -5.4805 H   0  0  0  0  0  0  0  0  0  0  0  0
   -0.1709  -12.3742   -6.4932 H   0  0  0  0  0  0  0  0  0  0  0  0
    1.5539  -10.9557   -5.3631 H   0  0  0  0  0  0  0  0  0  0  0  0
    1.5295   -8.4020   -2.3281 H   0  0  0  0  0  0  0  0  0  0  0  0
    1.5389  -10.0528   -1.6917 H   0  0  0  0  0  0  0  0  0  0  0  0
    9.4032   -6.2470    0.5469 H   0  0  0  0  0  0  0  0  0  0  0  0
  1  2  1  0
  1 29  1  0
  1 30  1  0
  1 31  1  0
  2  3  2  0
  2 28  1  0
  3  4  1  0
  3 32  1  0
  4  5  2  0
  4 33  1  0
  5  6  1  0
  5 34  1  0
  6  7  1  0
  6 28  2  0
  7  8  1  0
  8  9  1  0
  8 35  1  0
  8 36  1  0
  9 10  1  0
  9 37  1  0
  9 38  1  0
 10 11  2  0
 10 27  1  0
 11 12  1  0
 12 13  1  0
 13 14  1  0
 13 27  2  0
 14 15  1  0
 14 26  1  0
 14 39  1  1
 15 16  1  0
 15 40  1  0
 15 41  1  0
 16 17  1  0
 16 42  1  0
 16 43  1  0
 17 18  1  0
 17 26  1  0
 18 19  2  0
 18 20  1  0
 20 21  2  0
 20 25  1  0
 21 22  1  0
 21 44  1  0
 22 23  2  0
 22 45  1  0
 23 24  1  0
 23 46  1  0
 24 25  2  0
 24 47  1  0
 26 48  1  0
 26 49  1  0
 28 50  1  0
M  END

