
     RDKit          3D

 24 25  0  0  0  0  0  0  0  0999 V2000
    1.1096    0.0489    0.5638 N   0  0  0  0  0  0  0  0  0  0  0  0
    2.4466    0.1217    0.0185 C   0  0  2  0  0  0  0  0  0  0  0  0
    2.5677    1.2566   -1.0164 C   0  0  0  0  0  0  0  0  0  0  0  0
    1.7029    2.0951   -1.1229 O   0  0  0  0  0  0  0  0  0  0  0  0
    3.7316    1.3068   -1.8005 N   0  0  0  0  0  0  0  0  0  0  0  0
    4.3192    0.1849   -2.0501 C   0  0  0  0  0  0  0  0  0  0  0  0
    3.9069   -1.1187   -1.5477 C   0  0  0  0  0  0  0  0  0  0  0  0
    2.9777   -1.1935   -0.5602 C   0  0  0  0  0  0  0  0  0  0  0  0
    2.5111   -2.4827   -0.0170 C   0  0  0  0  0  0  0  0  0  0  0  0
    2.2663   -3.5807   -0.8658 C   0  0  0  0  0  0  0  0  0  0  0  0
    1.8211   -4.8097   -0.3825 C   0  0  0  0  0  0  0  0  0  0  0  0
    1.6167   -4.9530    0.9888 C   0  0  0  0  0  0  0  0  0  0  0  0
    1.1881   -6.1223    1.4713 F   0  0  0  0  0  0  0  0  0  0  0  0
    1.8498   -3.9046    1.8761 C   0  0  0  0  0  0  0  0  0  0  0  0
    2.2887   -2.6935    1.3551 C   0  0  0  0  0  0  0  0  0  0  0  0
    2.5549   -1.7051    2.2262 F   0  0  0  0  0  0  0  0  0  0  0  0
    0.5768    0.8438    0.2072 H   0  0  0  0  0  0  0  0  0  0  0  0
    1.1182    0.1026    1.5782 H   0  0  0  0  0  0  0  0  0  0  0  0
    3.1981    0.4018    0.7922 H   0  0  0  0  0  0  0  0  0  0  0  0
    5.2106    0.2217   -2.6953 H   0  0  0  0  0  0  0  0  0  0  0  0
    4.4019   -2.0097   -1.9400 H   0  0  0  0  0  0  0  0  0  0  0  0
    2.4011   -3.4488   -1.9410 H   0  0  0  0  0  0  0  0  0  0  0  0
    1.6191   -5.6492   -1.0493 H   0  0  0  0  0  0  0  0  0  0  0  0
    1.7024   -4.0280    2.9494 H   0  0  0  0  0  0  0  0  0  0  0  0
  1  2  1  0
  1 17  1  0
  1 18  1  0
  2  3  1  0
  2  8  1  0
  2 19  1  1
  3  4  2  0
  3  5  1  0
  5  6  2  0
  6  7  1  0
  6 20  1  0
  7  8  2  0
  7 21  1  0
  8  9  1  0
  9 10  2  0
  9 15  1  0
 10 11  1  0
 10 22  1  0
 11 12  2  0
 11 23  1  0
 12 13  1  0
 12 14  1  0
 14 15  2  0
 14 24  1  0
 15 16  1  0
M  END

