
     RDKit          3D

 44 44  0  0  0  0  0  0  0  0999 V2000
    3.2684    0.8106    1.2972 C   0  0  0  0  0  0  0  0  0  0  0  0
    2.7486   -0.1189    0.1991 C   0  0  1  0  0  0  0  0  0  0  0  0
    3.1253   -1.5821    0.4368 C   0  0  0  0  0  0  0  0  0  0  0  0
    1.2395    0.0366    0.0138 C   0  0  0  0  0  0  0  0  0  0  0  0
    3.2888    0.3166   -1.1195 O   0  0  0  0  0  0  0  0  0  0  0  0
    4.6135    0.3548   -1.4048 C   0  0  0  0  0  0  0  0  0  0  0  0
    5.4800    0.0205   -0.6389 O   0  0  0  0  0  0  0  0  0  0  0  0
    4.8549    0.8198   -2.8451 C   0  0  1  0  0  0  0  0  0  0  0  0
    4.1805    2.1622   -3.2309 C   0  0  0  0  0  0  0  0  0  0  0  0
    4.6962    2.9440   -3.9882 O   0  0  0  0  0  0  0  0  0  0  0  0
    2.9591    2.3806   -2.7387 O   0  0  0  0  0  0  0  0  0  0  0  0
    6.3619    0.7460   -3.2442 C   0  0  1  0  0  0  0  0  0  0  0  0
    6.5968    0.7892   -4.6767 N   0  0  0  0  0  0  0  0  0  0  0  0
    7.2180    1.8279   -2.5391 C   0  0  0  0  0  0  0  0  0  0  0  0
    8.6861    1.4726   -2.4999 C   0  0  0  0  0  0  0  0  0  0  0  0
    9.5328    1.7450   -3.5842 C   0  0  0  0  0  0  0  0  0  0  0  0
   10.8834    1.3919   -3.5483 C   0  0  0  0  0  0  0  0  0  0  0  0
   11.4103    0.7535   -2.4214 C   0  0  0  0  0  0  0  0  0  0  0  0
   12.8646    0.3691   -2.3489 C   0  0  1  0  0  0  0  0  0  0  0  0
   13.5307    0.6601   -3.4796 F   0  0  0  0  0  0  0  0  0  0  0  0
   13.4981    1.0022   -1.3403 F   0  0  0  0  0  0  0  0  0  0  0  0
   13.0196   -0.9519   -2.1240 F   0  0  0  0  0  0  0  0  0  0  0  0
   10.5761    0.4684   -1.3323 C   0  0  0  0  0  0  0  0  0  0  0  0
    9.2293    0.8246   -1.3767 C   0  0  0  0  0  0  0  0  0  0  0  0
    2.7700    0.5642    2.2474 H   0  0  0  0  0  0  0  0  0  0  0  0
    3.0388    1.8605    1.0572 H   0  0  0  0  0  0  0  0  0  0  0  0
    4.3518    0.7056    1.4347 H   0  0  0  0  0  0  0  0  0  0  0  0
    2.6328   -1.9390    1.3544 H   0  0  0  0  0  0  0  0  0  0  0  0
    4.2093   -1.7045    0.5533 H   0  0  0  0  0  0  0  0  0  0  0  0
    2.7816   -2.2109   -0.3991 H   0  0  0  0  0  0  0  0  0  0  0  0
    0.7159   -0.2828    0.9271 H   0  0  0  0  0  0  0  0  0  0  0  0
    0.8815   -0.5813   -0.8234 H   0  0  0  0  0  0  0  0  0  0  0  0
    0.9694    1.0858   -0.1831 H   0  0  0  0  0  0  0  0  0  0  0  0
    4.3176    0.0745   -3.4641 H   0  0  0  0  0  0  0  0  0  0  0  0
    2.7183    1.6518   -2.1308 H   0  0  0  0  0  0  0  0  0  0  0  0
    6.7109   -0.2320   -2.8771 H   0  0  0  0  0  0  0  0  0  0  0  0
    6.1464    1.6114   -5.0780 H   0  0  0  0  0  0  0  0  0  0  0  0
    6.2356   -0.0384   -5.1483 H   0  0  0  0  0  0  0  0  0  0  0  0
    6.8573    1.9580   -1.5091 H   0  0  0  0  0  0  0  0  0  0  0  0
    7.0677    2.7822   -3.0649 H   0  0  0  0  0  0  0  0  0  0  0  0
    9.1234    2.2296   -4.4722 H   0  0  0  0  0  0  0  0  0  0  0  0
   11.5308    1.6119   -4.3986 H   0  0  0  0  0  0  0  0  0  0  0  0
   10.9815   -0.0318   -0.4496 H   0  0  0  0  0  0  0  0  0  0  0  0
    8.5801    0.5944   -0.5275 H   0  0  0  0  0  0  0  0  0  0  0  0
  1  2  1  0
  1 25  1  0
  1 26  1  0
  1 27  1  0
  2  3  1  0
  2  4  1  0
  2  5  1  6
  3 28  1  0
  3 29  1  0
  3 30  1  0
  4 31  1  0
  4 32  1  0
  4 33  1  0
  5  6  1  0
  6  7  2  0
  6  8  1  0
  8  9  1  0
  8 12  1  0
  8 34  1  6
  9 10  2  0
  9 11  1  0
 11 35  1  0
 12 13  1  0
 12 14  1  0
 12 36  1  1
 13 37  1  0
 13 38  1  0
 14 15  1  0
 14 39  1  0
 14 40  1  0
 15 16  2  0
 15 24  1  0
 16 17  1  0
 16 41  1  0
 17 18  2  0
 17 42  1  0
 18 19  1  0
 18 23  1  0
 19 20  1  6
 19 21  1  0
 19 22  1  0
 23 24  2  0
 23 43  1  0
 24 44  1  0
M  END

