
     RDKit          3D

 41 43  0  0  0  0  0  0  0  0999 V2000
    1.3193    2.9547    1.8853 C   0  0  0  0  0  0  0  0  0  0  0  0
    2.7021    2.6967    1.3392 C   0  0  0  0  0  0  0  0  0  0  0  0
    3.5256    1.6864    1.8534 C   0  0  0  0  0  0  0  0  0  0  0  0
    4.8050    1.4372    1.3470 C   0  0  0  0  0  0  0  0  0  0  0  0
    5.3104    2.2087    0.2881 C   0  0  0  0  0  0  0  0  0  0  0  0
    6.5729    2.0539   -0.3013 N   0  0  0  0  0  0  0  0  0  0  0  0
    7.5307    1.1181   -0.0080 C   0  0  0  0  0  0  0  0  0  0  0  0
    7.4227    0.2513    0.8397 O   0  0  0  0  0  0  0  0  0  0  0  0
    8.7801    1.1943   -0.9046 C   0  0  0  0  0  0  0  0  0  0  0  0
    9.3945    2.5546   -1.0978 C   0  0  0  0  0  0  0  0  0  0  0  0
   10.6957    2.8893   -0.8087 C   0  0  0  0  0  0  0  0  0  0  0  0
   10.9970    4.5387   -1.2176 S   0  0  0  0  0  0  0  0  0  0  0  0
    9.3324    4.6865   -1.7622 C   0  0  0  0  0  0  0  0  0  0  0  0
    8.7919    5.9495   -2.2891 C   0  0  0  0  0  0  0  0  0  0  0  0
    9.6342    7.0017   -2.6885 C   0  0  0  0  0  0  0  0  0  0  0  0
    9.1037    8.1918   -3.1849 C   0  0  0  0  0  0  0  0  0  0  0  0
    7.7187    8.3468   -3.2929 C   0  0  0  0  0  0  0  0  0  0  0  0
    7.1154    9.6200   -3.8324 C   0  0  1  0  0  0  0  0  0  0  0  0
    8.0483   10.5384   -4.1322 F   0  0  0  0  0  0  0  0  0  0  0  0
    6.4032    9.3904   -4.9516 F   0  0  0  0  0  0  0  0  0  0  0  0
    6.2712   10.1780   -2.9447 F   0  0  0  0  0  0  0  0  0  0  0  0
    6.8686    7.3039   -2.8981 C   0  0  0  0  0  0  0  0  0  0  0  0
    7.3971    6.1171   -2.4009 C   0  0  0  0  0  0  0  0  0  0  0  0
    8.6485    3.5785   -1.6277 N   0  0  0  0  0  0  0  0  0  0  0  0
    4.4711    3.2160   -0.2210 C   0  0  0  0  0  0  0  0  0  0  0  0
    4.9376    3.9645   -1.2513 F   0  0  0  0  0  0  0  0  0  0  0  0
    3.2051    3.4688    0.2777 C   0  0  0  0  0  0  0  0  0  0  0  0
    1.1116    2.3261    2.7636 H   0  0  0  0  0  0  0  0  0  0  0  0
    0.5428    2.7420    1.1307 H   0  0  0  0  0  0  0  0  0  0  0  0
    1.1943    4.0080    2.1867 H   0  0  0  0  0  0  0  0  0  0  0  0
    3.1619    1.0689    2.6791 H   0  0  0  0  0  0  0  0  0  0  0  0
    5.4291    0.6472    1.7583 H   0  0  0  0  0  0  0  0  0  0  0  0
    6.8313    2.7488   -1.0040 H   0  0  0  0  0  0  0  0  0  0  0  0
    8.4949    0.7885   -1.8927 H   0  0  0  0  0  0  0  0  0  0  0  0
    9.5088    0.5027   -0.4652 H   0  0  0  0  0  0  0  0  0  0  0  0
   11.4750    2.2576   -0.3867 H   0  0  0  0  0  0  0  0  0  0  0  0
   10.7195    6.8903   -2.6255 H   0  0  0  0  0  0  0  0  0  0  0  0
    9.7675    9.0000   -3.4943 H   0  0  0  0  0  0  0  0  0  0  0  0
    5.7856    7.4230   -2.9746 H   0  0  0  0  0  0  0  0  0  0  0  0
    6.7325    5.3152   -2.0805 H   0  0  0  0  0  0  0  0  0  0  0  0
    2.6188    4.2721   -0.1750 H   0  0  0  0  0  0  0  0  0  0  0  0
  1  2  1  0
  1 28  1  0
  1 29  1  0
  1 30  1  0
  2  3  2  0
  2 27  1  0
  3  4  1  0
  3 31  1  0
  4  5  2  0
  4 32  1  0
  5  6  1  0
  5 25  1  0
  6  7  1  0
  6 33  1  0
  7  8  2  0
  7  9  1  0
  9 10  1  0
  9 34  1  0
  9 35  1  0
 10 11  2  0
 10 24  1  0
 11 12  1  0
 11 36  1  0
 12 13  1  0
 13 14  1  0
 13 24  2  0
 14 15  2  0
 14 23  1  0
 15 16  1  0
 15 37  1  0
 16 17  2  0
 16 38  1  0
 17 18  1  0
 17 22  1  0
 18 19  1  6
 18 20  1  0
 18 21  1  0
 22 23  2  0
 22 39  1  0
 23 40  1  0
 25 26  1  0
 25 27  2  0
 27 41  1  0
M  END

