
     RDKit          3D

 50 50  0  0  0  0  0  0  0  0999 V2000
    1.1454    0.4538   -2.3647 C   0  0  0  0  0  0  0  0  0  0  0  0
    1.5534   -0.7549   -1.9575 C   0  0  0  0  0  0  0  0  0  0  0  0
    0.8948   -2.0355   -2.4034 C   0  0  0  0  0  0  0  0  0  0  0  0
    2.7672   -0.8598   -1.0249 C   0  0  1  0  0  0  0  0  0  0  0  0
    2.6659   -2.0445   -0.0523 C   0  0  0  0  0  0  0  0  0  0  0  0
    3.3548   -3.0331   -0.1121 O   0  0  0  0  0  0  0  0  0  0  0  0
    1.7121   -1.8269    0.8585 O   0  0  0  0  0  0  0  0  0  0  0  0
    1.4977   -2.8400    1.8682 C   0  0  0  0  0  0  0  0  0  0  0  0
    0.5265   -3.9087    1.3991 C   0  0  0  0  0  0  0  0  0  0  0  0
    4.0275   -0.9085   -1.7370 N   0  0  0  0  0  0  0  0  0  0  0  0
    5.1972   -0.1850   -1.5112 C   0  0  0  0  0  0  0  0  0  0  0  0
    5.4171    0.7623   -0.8115 O   0  0  0  0  0  0  0  0  0  0  0  0
    5.9916   -1.1318   -2.4443 C   0  0  2  0  0  0  0  0  0  0  0  0
    6.8276   -0.6119   -3.4583 N   0  0  0  0  0  0  0  0  0  0  0  0
    8.0411   -1.2260   -3.7432 C   0  0  0  0  0  0  0  0  0  0  0  0
    8.4997   -2.1393   -3.0925 O   0  0  0  0  0  0  0  0  0  0  0  0
    8.6304   -0.6968   -4.8925 N   0  0  0  0  0  0  0  0  0  0  0  0
    9.9840   -0.9456   -5.0411 O   0  0  0  0  0  0  0  0  0  0  0  0
   10.2980   -1.8314   -6.1593 C   0  0  1  0  0  0  0  0  0  0  0  0
    9.8787   -1.1647   -7.4730 C   0  0  0  0  0  0  0  0  0  0  0  0
   11.8180   -1.9516   -6.0530 C   0  0  0  0  0  0  0  0  0  0  0  0
    9.6193   -3.1905   -5.9756 C   0  0  0  0  0  0  0  0  0  0  0  0
    4.5723   -1.7805   -2.7377 C   0  0  2  0  0  0  0  0  0  0  0  0
    3.8743   -1.3475   -4.4371 S   0  0  0  0  0  0  0  0  0  0  0  0
    4.3564    0.0409   -4.7016 O   0  0  0  0  0  0  0  0  0  0  0  0
    5.1186   -2.8347   -5.4675 Cl  0  0  0  0  0  0  0  0  0  0  0  0
    0.3129    0.5662   -3.0650 H   0  0  0  0  0  0  0  0  0  0  0  0
    1.6325    1.3705   -2.0205 H   0  0  0  0  0  0  0  0  0  0  0  0
    0.1149   -1.8409   -3.1530 H   0  0  0  0  0  0  0  0  0  0  0  0
    0.4242   -2.5534   -1.5510 H   0  0  0  0  0  0  0  0  0  0  0  0
    1.6179   -2.7455   -2.8398 H   0  0  0  0  0  0  0  0  0  0  0  0
    2.8191    0.0560   -0.4161 H   0  0  0  0  0  0  0  0  0  0  0  0
    1.1007   -2.2867    2.7307 H   0  0  0  0  0  0  0  0  0  0  0  0
    2.4700   -3.2780    2.1366 H   0  0  0  0  0  0  0  0  0  0  0  0
   -0.4381   -3.4669    1.1044 H   0  0  0  0  0  0  0  0  0  0  0  0
    0.3391   -4.6230    2.2166 H   0  0  0  0  0  0  0  0  0  0  0  0
    0.9391   -4.4700    0.5476 H   0  0  0  0  0  0  0  0  0  0  0  0
    6.5873   -1.8397   -1.8458 H   0  0  0  0  0  0  0  0  0  0  0  0
    6.3937    0.0149   -4.1309 H   0  0  0  0  0  0  0  0  0  0  0  0
    8.4304    0.2843   -5.0818 H   0  0  0  0  0  0  0  0  0  0  0  0
   10.3687   -0.1844   -7.5859 H   0  0  0  0  0  0  0  0  0  0  0  0
    8.7882   -1.0193   -7.5045 H   0  0  0  0  0  0  0  0  0  0  0  0
   10.1605   -1.7914   -8.3336 H   0  0  0  0  0  0  0  0  0  0  0  0
   12.2901   -0.9600   -6.1274 H   0  0  0  0  0  0  0  0  0  0  0  0
   12.2106   -2.5885   -6.8601 H   0  0  0  0  0  0  0  0  0  0  0  0
   12.0983   -2.3946   -5.0858 H   0  0  0  0  0  0  0  0  0  0  0  0
    8.5250   -3.0980   -6.0381 H   0  0  0  0  0  0  0  0  0  0  0  0
    9.8691   -3.6127   -4.9924 H   0  0  0  0  0  0  0  0  0  0  0  0
    9.9471   -3.8867   -6.7639 H   0  0  0  0  0  0  0  0  0  0  0  0
    4.4395   -2.8632   -2.5987 H   0  0  0  0  0  0  0  0  0  0  0  0
  1  2  2  0
  1 27  1  0
  1 28  1  0
  2  3  1  0
  2  4  1  0
  3 29  1  0
  3 30  1  0
  3 31  1  0
  4  5  1  0
  4 10  1  0
  4 32  1  1
  5  6  2  0
  5  7  1  0
  7  8  1  0
  8  9  1  0
  8 33  1  0
  8 34  1  0
  9 35  1  0
  9 36  1  0
  9 37  1  0
 10 11  1  0
 10 23  1  0
 11 12  2  0
 11 13  1  0
 13 14  1  0
 13 23  1  0
 13 38  1  1
 14 15  1  0
 14 39  1  0
 15 16  2  0
 15 17  1  0
 17 18  1  0
 17 40  1  0
 19 18  1  1
 19 20  1  0
 19 21  1  0
 19 22  1  0
 20 41  1  0
 20 42  1  0
 20 43  1  0
 21 44  1  0
 21 45  1  0
 21 46  1  0
 22 47  1  0
 22 48  1  0
 22 49  1  0
 23 24  1  0
 23 50  1  1
 24 25  1  6
 24 26  1  0
M  CHG  2  24   1  25  -1
M  END

