
     RDKit          3D

 76 83  0  0  0  0  0  0  0  0999 V2000
   -0.6530    0.0118   -1.0952 C   0  0  0  0  0  0  0  0  0  0  0  0
    0.8926    0.0337   -1.1414 C   0  0  1  0  0  0  0  0  0  0  0  0
    1.3873    1.4963   -1.0545 C   0  0  0  0  0  0  0  0  0  0  0  0
    1.4182   -0.7223    0.0922 C   0  0  0  0  0  0  0  0  0  0  0  0
    1.3792   -0.5983   -2.4616 C   0  0  0  0  0  0  0  0  0  0  0  0
    0.9846   -0.0246   -3.6962 C   0  0  0  0  0  0  0  0  0  0  0  0
    1.3826   -0.5323   -4.9313 C   0  0  0  0  0  0  0  0  0  0  0  0
    2.2127   -1.6592   -4.9426 C   0  0  0  0  0  0  0  0  0  0  0  0
    2.6176   -2.2681   -3.7291 C   0  0  0  0  0  0  0  0  0  0  0  0
    2.2001   -1.7312   -2.5016 C   0  0  0  0  0  0  0  0  0  0  0  0
    3.4322   -3.4146   -4.0891 C   0  0  0  0  0  0  0  0  0  0  0  0
    4.1148   -4.3844   -3.3461 C   0  0  0  0  0  0  0  0  0  0  0  0
    4.8545   -5.3917   -3.9846 C   0  0  0  0  0  0  0  0  0  0  0  0
    5.5936   -6.4509   -3.1390 C   0  0  1  0  0  0  0  0  0  0  0  0
    4.5731   -7.2208   -2.2690 C   0  0  0  0  0  0  0  0  0  0  0  0
    6.3456   -7.4740   -4.0099 C   0  0  0  0  0  0  0  0  0  0  0  0
    6.6248   -5.7531   -2.2219 C   0  0  0  0  0  0  0  0  0  0  0  0
    4.8916   -5.3864   -5.3975 C   0  0  0  0  0  0  0  0  0  0  0  0
    4.2219   -4.4330   -6.1689 C   0  0  0  0  0  0  0  0  0  0  0  0
    3.4830   -3.4495   -5.5077 C   0  0  0  0  0  0  0  0  0  0  0  0
    2.7403   -2.3798   -6.0198 N   0  0  0  0  0  0  0  0  0  0  0  0
    2.5556   -2.0781   -7.3942 C   0  0  0  0  0  0  0  0  0  0  0  0
    1.9704   -3.0399   -8.2473 C   0  0  0  0  0  0  0  0  0  0  0  0
    1.7779   -2.7872   -9.6067 C   0  0  0  0  0  0  0  0  0  0  0  0
    2.1673   -1.5397  -10.0797 C   0  0  0  0  0  0  0  0  0  0  0  0
    2.0495   -1.1093  -11.3759 O   0  0  0  0  0  0  0  0  0  0  0  0
    2.5465    0.1576  -11.4134 C   0  0  0  0  0  0  0  0  0  0  0  0
    2.5729    0.8494  -12.5344 N   0  0  0  0  0  0  0  0  0  0  0  0
    3.0880    2.0504  -12.3737 C   0  0  0  0  0  0  0  0  0  0  0  0
    3.2008    2.9181  -13.4212 O   0  0  0  0  0  0  0  0  0  0  0  0
    3.7669    4.0598  -12.9270 C   0  0  0  0  0  0  0  0  0  0  0  0
    4.0511    5.2008  -13.6699 C   0  0  0  0  0  0  0  0  0  0  0  0
    4.6276    6.2724  -12.9880 C   0  0  0  0  0  0  0  0  0  0  0  0
    4.9069    6.1930  -11.6086 C   0  0  0  0  0  0  0  0  0  0  0  0
    5.5762    7.3649  -10.9345 C   0  0  1  0  0  0  0  0  0  0  0  0
    5.0661    8.5372  -11.3539 F   0  0  0  0  0  0  0  0  0  0  0  0
    5.4434    7.3213   -9.5972 F   0  0  0  0  0  0  0  0  0  0  0  0
    6.8972    7.4014  -11.1980 F   0  0  0  0  0  0  0  0  0  0  0  0
    4.6129    5.0399  -10.8760 C   0  0  0  0  0  0  0  0  0  0  0  0
    4.0338    3.9552  -11.5442 C   0  0  0  0  0  0  0  0  0  0  0  0
    3.5856    2.6263  -11.1711 C   0  0  0  0  0  0  0  0  0  0  0  0
    3.5395    1.8585  -10.0022 C   0  0  0  0  0  0  0  0  0  0  0  0
    2.9990    0.5749  -10.1284 C   0  0  0  0  0  0  0  0  0  0  0  0
    2.7434   -0.5532   -9.2511 C   0  0  0  0  0  0  0  0  0  0  0  0
    2.9509   -0.8302   -7.8946 C   0  0  0  0  0  0  0  0  0  0  0  0
   -1.0185    0.4632   -0.1578 H   0  0  0  0  0  0  0  0  0  0  0  0
   -1.0342   -1.0205   -1.1476 H   0  0  0  0  0  0  0  0  0  0  0  0
   -1.0979    0.5746   -1.9300 H   0  0  0  0  0  0  0  0  0  0  0  0
    1.0451    1.9658   -0.1172 H   0  0  0  0  0  0  0  0  0  0  0  0
    1.0110    2.1081   -1.8887 H   0  0  0  0  0  0  0  0  0  0  0  0
    2.4879    1.5422   -1.0763 H   0  0  0  0  0  0  0  0  0  0  0  0
    1.0497   -0.2395    1.0112 H   0  0  0  0  0  0  0  0  0  0  0  0
    2.5185   -0.7209    0.1371 H   0  0  0  0  0  0  0  0  0  0  0  0
    1.0758   -1.7689    0.1096 H   0  0  0  0  0  0  0  0  0  0  0  0
    0.3364    0.8547   -3.6939 H   0  0  0  0  0  0  0  0  0  0  0  0
    1.0467   -0.0626   -5.8574 H   0  0  0  0  0  0  0  0  0  0  0  0
    2.5250   -2.2167   -1.5813 H   0  0  0  0  0  0  0  0  0  0  0  0
    4.0656   -4.3444   -2.2553 H   0  0  0  0  0  0  0  0  0  0  0  0
    3.8279   -7.7347   -2.8969 H   0  0  0  0  0  0  0  0  0  0  0  0
    4.0285   -6.5515   -1.5856 H   0  0  0  0  0  0  0  0  0  0  0  0
    5.0835   -7.9809   -1.6542 H   0  0  0  0  0  0  0  0  0  0  0  0
    5.6639   -8.0318   -4.6711 H   0  0  0  0  0  0  0  0  0  0  0  0
    6.8546   -8.2086   -3.3660 H   0  0  0  0  0  0  0  0  0  0  0  0
    7.1150   -6.9956   -4.6360 H   0  0  0  0  0  0  0  0  0  0  0  0
    6.1464   -5.0372   -1.5362 H   0  0  0  0  0  0  0  0  0  0  0  0
    7.3698   -5.1998   -2.8156 H   0  0  0  0  0  0  0  0  0  0  0  0
    7.1613   -6.4952   -1.6074 H   0  0  0  0  0  0  0  0  0  0  0  0
    5.4632   -6.1489   -5.9265 H   0  0  0  0  0  0  0  0  0  0  0  0
    4.2846   -4.4630   -7.2580 H   0  0  0  0  0  0  0  0  0  0  0  0
    1.6583   -3.9960   -7.8236 H   0  0  0  0  0  0  0  0  0  0  0  0
    1.3287   -3.5269  -10.2710 H   0  0  0  0  0  0  0  0  0  0  0  0
    3.8265    5.2489  -14.7363 H   0  0  0  0  0  0  0  0  0  0  0  0
    4.8610    7.1918  -13.5283 H   0  0  0  0  0  0  0  0  0  0  0  0
    4.8285    4.9973   -9.8076 H   0  0  0  0  0  0  0  0  0  0  0  0
    3.9050    2.2399   -9.0461 H   0  0  0  0  0  0  0  0  0  0  0  0
    3.4171   -0.1012   -7.2296 H   0  0  0  0  0  0  0  0  0  0  0  0
  2  1  1  6
  1 46  1  0
  1 47  1  0
  1 48  1  0
  2  3  1  0
  2  4  1  0
  2  5  1  0
  3 49  1  0
  3 50  1  0
  3 51  1  0
  4 52  1  0
  4 53  1  0
  4 54  1  0
  5  6  2  0
  5 10  1  0
  6  7  1  0
  6 55  1  0
  7  8  2  0
  7 56  1  0
  8  9  1  0
  8 21  1  0
  9 10  2  0
  9 11  1  0
 10 57  1  0
 11 12  2  0
 11 20  1  0
 12 13  1  0
 12 58  1  0
 13 14  1  0
 13 18  2  0
 14 15  1  1
 14 16  1  0
 14 17  1  0
 15 59  1  0
 15 60  1  0
 15 61  1  0
 16 62  1  0
 16 63  1  0
 16 64  1  0
 17 65  1  0
 17 66  1  0
 17 67  1  0
 18 19  1  0
 18 68  1  0
 19 20  2  0
 19 69  1  0
 20 21  1  0
 21 22  1  0
 22 23  2  0
 22 45  1  0
 23 24  1  0
 23 70  1  0
 24 25  2  0
 24 71  1  0
 25 26  1  0
 25 44  1  0
 26 27  1  0
 27 28  1  0
 27 43  2  0
 28 29  2  0
 29 30  1  0
 29 41  1  0
 30 31  1  0
 31 32  1  0
 31 40  2  0
 32 33  2  0
 32 72  1  0
 33 34  1  0
 33 73  1  0
 34 35  1  0
 34 39  2  0
 35 36  1  6
 35 37  1  0
 35 38  1  0
 39 40  1  0
 39 74  1  0
 40 41  1  0
 41 42  2  0
 42 43  1  0
 42 75  1  0
 43 44  1  0
 44 45  2  0
 45 76  1  0
M  END

