
     RDKit          3D

 69 73  0  0  0  0  0  0  0  0999 V2000
    3.5470   -4.7747    2.5843 C   0  0  0  0  0  0  0  0  0  0  0  0
    4.4034   -3.6157    2.1312 C   0  0  0  0  0  0  0  0  0  0  0  0
    5.8147   -3.7425    2.1244 C   0  0  0  0  0  0  0  0  0  0  0  0
    6.6424   -2.7126    1.6932 C   0  0  0  0  0  0  0  0  0  0  0  0
    6.0709   -1.5014    1.2581 C   0  0  0  0  0  0  0  0  0  0  0  0
    6.6188   -0.2605    0.7454 C   0  0  0  0  0  0  0  0  0  0  0  0
    8.0924    0.0343    0.5680 C   0  0  1  0  0  0  0  0  0  0  0  0
    8.7520   -0.8426   -0.5318 C   0  0  0  0  0  0  0  0  0  0  0  0
    8.4414   -0.3344   -1.9487 C   0  0  0  0  0  0  0  0  0  0  0  0
    8.8125    1.0662   -2.1572 N   0  0  0  0  0  0  0  0  0  0  0  0
   10.2265    1.3017   -2.4085 C   0  0  0  0  0  0  0  0  0  0  0  0
   10.5669    1.0921   -3.8966 C   0  0  0  0  0  0  0  0  0  0  0  0
   11.9664    1.2617   -4.2206 N   0  0  0  0  0  0  0  0  0  0  0  0
   12.6547    2.5391   -4.2203 C   0  0  0  0  0  0  0  0  0  0  0  0
   14.0754    2.1395   -4.6630 C   0  0  0  0  0  0  0  0  0  0  0  0
   14.1444    0.7482   -4.2461 N   0  0  0  0  0  0  0  0  0  0  0  0
   15.2988   -0.1194   -4.4577 C   0  0  1  0  0  0  0  0  0  0  0  0
   15.6524   -0.2814   -5.9438 C   0  0  0  0  0  0  0  0  0  0  0  0
   16.4990    0.3420   -3.6243 C   0  0  0  0  0  0  0  0  0  0  0  0
   12.8679    0.2145   -4.1181 C   0  0  0  0  0  0  0  0  0  0  0  0
   12.5885   -0.9593   -3.9475 O   0  0  0  0  0  0  0  0  0  0  0  0
    8.1663    1.9292   -1.1754 C   0  0  0  0  0  0  0  0  0  0  0  0
    8.4219    1.5183    0.2888 C   0  0  0  0  0  0  0  0  0  0  0  0
    5.5396    0.5529    0.5084 C   0  0  0  0  0  0  0  0  0  0  0  0
    4.3455   -0.0907    0.8362 N   0  0  0  0  0  0  0  0  0  0  0  0
    3.0616    0.4849    0.7302 C   0  0  0  0  0  0  0  0  0  0  0  0
    2.1357    0.4215    1.7846 C   0  0  0  0  0  0  0  0  0  0  0  0
    0.8652    0.9869    1.6599 C   0  0  0  0  0  0  0  0  0  0  0  0
    0.5017    1.6478    0.4828 C   0  0  0  0  0  0  0  0  0  0  0  0
    1.4132    1.7369   -0.5723 C   0  0  0  0  0  0  0  0  0  0  0  0
    2.6696    1.1541   -0.4430 C   0  0  0  0  0  0  0  0  0  0  0  0
    3.5307    1.2376   -1.4686 F   0  0  0  0  0  0  0  0  0  0  0  0
    4.6572   -1.3680    1.2978 C   0  0  0  0  0  0  0  0  0  0  0  0
    3.8224   -2.4156    1.7142 C   0  0  0  0  0  0  0  0  0  0  0  0
    3.6994   -5.6607    1.9446 H   0  0  0  0  0  0  0  0  0  0  0  0
    2.4761   -4.5241    2.5577 H   0  0  0  0  0  0  0  0  0  0  0  0
    3.7955   -5.0798    3.6150 H   0  0  0  0  0  0  0  0  0  0  0  0
    6.2611   -4.6822    2.4624 H   0  0  0  0  0  0  0  0  0  0  0  0
    7.7266   -2.8477    1.6925 H   0  0  0  0  0  0  0  0  0  0  0  0
    8.5722   -0.2366    1.5262 H   0  0  0  0  0  0  0  0  0  0  0  0
    8.4290   -1.8912   -0.4367 H   0  0  0  0  0  0  0  0  0  0  0  0
    9.8447   -0.8381   -0.3747 H   0  0  0  0  0  0  0  0  0  0  0  0
    7.3593   -0.4374   -2.1462 H   0  0  0  0  0  0  0  0  0  0  0  0
    8.9560   -0.9621   -2.6927 H   0  0  0  0  0  0  0  0  0  0  0  0
   10.9008    0.6582   -1.8047 H   0  0  0  0  0  0  0  0  0  0  0  0
   10.4601    2.3425   -2.1286 H   0  0  0  0  0  0  0  0  0  0  0  0
    9.9604    1.7831   -4.5056 H   0  0  0  0  0  0  0  0  0  0  0  0
   10.2977    0.0678   -4.1919 H   0  0  0  0  0  0  0  0  0  0  0  0
   12.6711    3.0027   -3.2134 H   0  0  0  0  0  0  0  0  0  0  0  0
   12.1856    3.2573   -4.9126 H   0  0  0  0  0  0  0  0  0  0  0  0
   14.8485    2.7589   -4.1822 H   0  0  0  0  0  0  0  0  0  0  0  0
   14.1898    2.2468   -5.7600 H   0  0  0  0  0  0  0  0  0  0  0  0
   14.9642   -1.0984   -4.0809 H   0  0  0  0  0  0  0  0  0  0  0  0
   15.9961    0.6666   -6.3909 H   0  0  0  0  0  0  0  0  0  0  0  0
   14.7824   -0.6393   -6.5160 H   0  0  0  0  0  0  0  0  0  0  0  0
   16.4637   -1.0162   -6.0678 H   0  0  0  0  0  0  0  0  0  0  0  0
   16.8819    1.3193   -3.9643 H   0  0  0  0  0  0  0  0  0  0  0  0
   17.3265   -0.3800   -3.7076 H   0  0  0  0  0  0  0  0  0  0  0  0
   16.2251    0.4318   -2.5620 H   0  0  0  0  0  0  0  0  0  0  0  0
    7.0826    1.9187   -1.3851 H   0  0  0  0  0  0  0  0  0  0  0  0
    8.5004    2.9673   -1.3372 H   0  0  0  0  0  0  0  0  0  0  0  0
    7.8569    2.1742    0.9727 H   0  0  0  0  0  0  0  0  0  0  0  0
    9.4902    1.6813    0.5155 H   0  0  0  0  0  0  0  0  0  0  0  0
    5.5036    1.5736    0.1403 H   0  0  0  0  0  0  0  0  0  0  0  0
    2.4332   -0.0694    2.7125 H   0  0  0  0  0  0  0  0  0  0  0  0
    0.1624    0.9225    2.4936 H   0  0  0  0  0  0  0  0  0  0  0  0
   -0.4884    2.0982    0.3834 H   0  0  0  0  0  0  0  0  0  0  0  0
    1.1669    2.2427   -1.5081 H   0  0  0  0  0  0  0  0  0  0  0  0
    2.7363   -2.3067    1.7085 H   0  0  0  0  0  0  0  0  0  0  0  0
  1  2  1  0
  1 35  1  0
  1 36  1  0
  1 37  1  0
  2  3  2  0
  2 34  1  0
  3  4  1  0
  3 38  1  0
  4  5  2  0
  4 39  1  0
  5  6  1  0
  5 33  1  0
  6  7  1  0
  6 24  2  0
  7  8  1  0
  7 23  1  0
  7 40  1  1
  8  9  1  0
  8 41  1  0
  8 42  1  0
  9 10  1  0
  9 43  1  0
  9 44  1  0
 10 11  1  0
 10 22  1  0
 11 12  1  0
 11 45  1  0
 11 46  1  0
 12 13  1  0
 12 47  1  0
 12 48  1  0
 13 14  1  0
 13 20  1  0
 14 15  1  0
 14 49  1  0
 14 50  1  0
 15 16  1  0
 15 51  1  0
 15 52  1  0
 16 17  1  0
 16 20  1  0
 17 18  1  0
 17 19  1  0
 17 53  1  1
 18 54  1  0
 18 55  1  0
 18 56  1  0
 19 57  1  0
 19 58  1  0
 19 59  1  0
 20 21  2  0
 22 23  1  0
 22 60  1  0
 22 61  1  0
 23 62  1  0
 23 63  1  0
 24 25  1  0
 24 64  1  0
 25 26  1  0
 25 33  1  0
 26 27  2  0
 26 31  1  0
 27 28  1  0
 27 65  1  0
 28 29  2  0
 28 66  1  0
 29 30  1  0
 29 67  1  0
 30 31  2  0
 30 68  1  0
 31 32  1  0
 33 34  2  0
 34 69  1  0
M  END

