
     RDKit          3D

 40 40  0  0  0  0  0  0  0  0999 V2000
    2.9349   -1.0661    4.2435 C   0  0  0  0  0  0  0  0  0  0  0  0
    3.0193    0.7501    4.3175 S   0  0  0  0  0  0  0  0  0  0  0  0
    4.2704    1.0509    3.0124 C   0  0  0  0  0  0  0  0  0  0  0  0
    4.5001    2.5535    2.8516 C   0  0  0  0  0  0  0  0  0  0  0  0
    5.5618    2.9124    1.7824 C   0  0  2  0  0  0  0  0  0  0  0  0
    5.5624    4.0083    1.6846 H   0  0  0  0  0  0  0  0  0  0  0  0
    5.1970    2.3549    0.4870 N   0  0  0  0  0  0  0  0  0  0  0  0
    6.9623    2.4212    2.2314 C   0  0  0  0  0  0  0  0  0  0  0  0
    7.3767    1.3516    1.7963 O   0  0  0  0  0  0  0  0  0  0  0  0
    7.6855    3.1649    3.1287 N   0  0  0  0  0  0  0  0  0  0  0  0
    8.9713    2.6562    3.6086 C   0  0  0  0  0  0  0  0  0  0  0  0
   10.0882    3.6809    3.3951 C   0  0  0  0  0  0  0  0  0  0  0  0
    9.7290    5.0547    3.9878 C   0  0  1  0  0  0  0  0  0  0  0  0
    9.5981    4.9069    5.0775 H   0  0  0  0  0  0  0  0  0  0  0  0
   10.8542    6.0762    3.8031 C   0  0  0  0  0  0  0  0  0  0  0  0
    8.3506    5.5372    3.4623 C   0  0  1  0  0  0  0  0  0  0  0  0
    8.0518    6.4081    4.0739 H   0  0  0  0  0  0  0  0  0  0  0  0
    8.3443    5.9774    1.9920 C   0  0  0  0  0  0  0  0  0  0  0  0
    7.2982    4.4393    3.7241 C   0  0  0  0  0  0  0  0  0  0  0  0
    2.2020   -1.3854    4.9984 H   0  0  0  0  0  0  0  0  0  0  0  0
    3.9081   -1.5250    4.4790 H   0  0  0  0  0  0  0  0  0  0  0  0
    2.5971   -1.4128    3.2542 H   0  0  0  0  0  0  0  0  0  0  0  0
    3.9058    0.6281    2.0628 H   0  0  0  0  0  0  0  0  0  0  0  0
    5.2049    0.5315    3.2798 H   0  0  0  0  0  0  0  0  0  0  0  0
    4.7874    2.9857    3.8253 H   0  0  0  0  0  0  0  0  0  0  0  0
    3.5534    3.0305    2.5504 H   0  0  0  0  0  0  0  0  0  0  0  0
    5.5770    1.4056    0.4443 H   0  0  0  0  0  0  0  0  0  0  0  0
    5.6891    2.8608   -0.2498 H   0  0  0  0  0  0  0  0  0  0  0  0
    9.1718    1.7164    3.0810 H   0  0  0  0  0  0  0  0  0  0  0  0
    8.8799    2.4279    4.6886 H   0  0  0  0  0  0  0  0  0  0  0  0
   10.2958    3.7763    2.3151 H   0  0  0  0  0  0  0  0  0  0  0  0
   11.0159    3.3043    3.8587 H   0  0  0  0  0  0  0  0  0  0  0  0
   11.1117    6.2169    2.7410 H   0  0  0  0  0  0  0  0  0  0  0  0
   11.7698    5.7444    4.3189 H   0  0  0  0  0  0  0  0  0  0  0  0
   10.5774    7.0608    4.2150 H   0  0  0  0  0  0  0  0  0  0  0  0
    8.6022    5.1512    1.3110 H   0  0  0  0  0  0  0  0  0  0  0  0
    9.0552    6.7967    1.8083 H   0  0  0  0  0  0  0  0  0  0  0  0
    7.3454    6.3433    1.7028 H   0  0  0  0  0  0  0  0  0  0  0  0
    6.3205    4.7573    3.3453 H   0  0  0  0  0  0  0  0  0  0  0  0
    7.1867    4.2994    4.8168 H   0  0  0  0  0  0  0  0  0  0  0  0
  1  2  1  0
  1 20  1  0
  1 21  1  0
  1 22  1  0
  2  3  1  0
  3  4  1  0
  3 23  1  0
  3 24  1  0
  4  5  1  0
  4 25  1  0
  4 26  1  0
  5  6  1  6
  5  7  1  0
  5  8  1  0
  7 27  1  0
  7 28  1  0
  8  9  2  0
  8 10  1  0
 10 11  1  0
 10 19  1  0
 11 12  1  0
 11 29  1  0
 11 30  1  0
 12 13  1  0
 12 31  1  0
 12 32  1  0
 13 14  1  1
 13 15  1  0
 13 16  1  0
 15 33  1  0
 15 34  1  0
 15 35  1  0
 16 17  1  1
 16 18  1  0
 16 19  1  0
 18 36  1  0
 18 37  1  0
 18 38  1  0
 19 39  1  0
 19 40  1  0
M  END

