
     RDKit          3D

 43 42  0  0  0  0  0  0  0  0999 V2000
    1.4729    0.4210    0.6676 C   0  0  0  0  0  0  0  0  0  0  0  0
    2.7215    0.1215   -0.1660 C   0  0  0  0  0  0  0  0  0  0  0  0
    3.1684   -1.3657   -0.2913 C   0  0  1  0  0  0  0  0  0  0  0  0
    3.3181   -2.0353    1.0090 N   0  0  0  0  0  0  0  0  0  0  0  0
    2.1672   -2.1942   -1.1141 C   0  0  0  0  0  0  0  0  0  0  0  0
    0.9464   -2.3295   -0.4019 O   0  0  0  0  0  0  0  0  0  0  0  0
    4.5482   -1.3742   -1.0012 C   0  0  0  0  0  0  0  0  0  0  0  0
    5.1456   -2.7571   -1.3029 C   0  0  0  0  0  0  0  0  0  0  0  0
    6.6797   -2.7822   -1.2954 C   0  0  0  0  0  0  0  0  0  0  0  0
    7.2838   -2.3801   -0.0211 N   0  0  0  0  0  0  0  0  0  0  0  0
    6.8274   -3.1140    1.1386 C   0  0  0  0  0  0  0  0  0  0  0  0
    7.1317   -4.6125    1.2050 C   0  0  1  0  0  0  0  0  0  0  0  0
    8.4375   -4.8905    1.0068 F   0  0  0  0  0  0  0  0  0  0  0  0
    6.7991   -5.1002    2.4157 F   0  0  0  0  0  0  0  0  0  0  0  0
    6.4425   -5.3263    0.2912 F   0  0  0  0  0  0  0  0  0  0  0  0
    8.7135   -2.0103   -0.1288 C   0  0  1  0  0  0  0  0  0  0  0  0
    8.8721   -0.6850   -0.8929 C   0  0  0  0  0  0  0  0  0  0  0  0
    9.4132   -1.8733    1.2278 C   0  0  0  0  0  0  0  0  0  0  0  0
    1.3207    1.5093    0.7506 H   0  0  0  0  0  0  0  0  0  0  0  0
    1.5702    0.0252    1.6917 H   0  0  0  0  0  0  0  0  0  0  0  0
    0.5709   -0.0265    0.2299 H   0  0  0  0  0  0  0  0  0  0  0  0
    3.5767    0.6745    0.2652 H   0  0  0  0  0  0  0  0  0  0  0  0
    2.5906    0.5315   -1.1834 H   0  0  0  0  0  0  0  0  0  0  0  0
    2.3966   -2.2883    1.3666 H   0  0  0  0  0  0  0  0  0  0  0  0
    3.7395   -1.4009    1.6881 H   0  0  0  0  0  0  0  0  0  0  0  0
    2.6037   -3.1893   -1.3073 H   0  0  0  0  0  0  0  0  0  0  0  0
    2.0112   -1.6970   -2.0923 H   0  0  0  0  0  0  0  0  0  0  0  0
    0.4303   -3.0358   -0.8080 H   0  0  0  0  0  0  0  0  0  0  0  0
    5.2466   -0.8320   -0.3418 H   0  0  0  0  0  0  0  0  0  0  0  0
    4.4830   -0.7776   -1.9281 H   0  0  0  0  0  0  0  0  0  0  0  0
    4.8235   -3.1152   -2.2954 H   0  0  0  0  0  0  0  0  0  0  0  0
    4.7605   -3.4891   -0.5784 H   0  0  0  0  0  0  0  0  0  0  0  0
    7.0398   -2.0858   -2.0664 H   0  0  0  0  0  0  0  0  0  0  0  0
    7.0218   -3.7896   -1.6134 H   0  0  0  0  0  0  0  0  0  0  0  0
    5.7322   -3.0262    1.2355 H   0  0  0  0  0  0  0  0  0  0  0  0
    7.2486   -2.6817    2.0549 H   0  0  0  0  0  0  0  0  0  0  0  0
    9.2569   -2.7971   -0.6968 H   0  0  0  0  0  0  0  0  0  0  0  0
    8.3919    0.1349   -0.3345 H   0  0  0  0  0  0  0  0  0  0  0  0
    8.4294   -0.7123   -1.8985 H   0  0  0  0  0  0  0  0  0  0  0  0
    9.9397   -0.4434   -1.0161 H   0  0  0  0  0  0  0  0  0  0  0  0
    8.9110   -1.1236    1.8619 H   0  0  0  0  0  0  0  0  0  0  0  0
   10.4456   -1.5287    1.0658 H   0  0  0  0  0  0  0  0  0  0  0  0
    9.4699   -2.8228    1.7757 H   0  0  0  0  0  0  0  0  0  0  0  0
  1  2  1  0
  1 19  1  0
  1 20  1  0
  1 21  1  0
  2  3  1  0
  2 22  1  0
  2 23  1  0
  3  4  1  1
  3  5  1  0
  3  7  1  0
  4 24  1  0
  4 25  1  0
  5  6  1  0
  5 26  1  0
  5 27  1  0
  6 28  1  0
  7  8  1  0
  7 29  1  0
  7 30  1  0
  8  9  1  0
  8 31  1  0
  8 32  1  0
  9 10  1  0
  9 33  1  0
  9 34  1  0
 10 11  1  0
 10 16  1  0
 11 12  1  0
 11 35  1  0
 11 36  1  0
 12 13  1  6
 12 14  1  0
 12 15  1  0
 16 17  1  0
 16 18  1  0
 16 37  1  6
 17 38  1  0
 17 39  1  0
 17 40  1  0
 18 41  1  0
 18 42  1  0
 18 43  1  0
M  END

