
     RDKit          3D

 52 53  0  0  0  0  0  0  0  0999 V2000
    9.7077    5.0297    1.0391 C   0  0  0  0  0  0  0  0  0  0  0  0
    9.0047    3.6847    0.8502 C   0  0  0  0  0  0  0  0  0  0  0  0
    9.8720    2.4807    1.2308 C   0  0  0  0  0  0  0  0  0  0  0  0
    9.1748    1.1303    1.0439 C   0  0  0  0  0  0  0  0  0  0  0  0
   10.0429   -0.0725    1.4255 C   0  0  0  0  0  0  0  0  0  0  0  0
    9.3386   -1.4182    1.2346 C   0  0  0  0  0  0  0  0  0  0  0  0
   10.2095   -2.6044    1.6182 C   0  0  0  0  0  0  0  0  0  0  0  0
    9.4643   -3.7913    1.4024 O   0  0  0  0  0  0  0  0  0  0  0  0
   10.0228   -4.9974    1.6725 C   0  0  0  0  0  0  0  0  0  0  0  0
   11.3207   -5.1890    2.1655 C   0  0  0  0  0  0  0  0  0  0  0  0
   11.8107   -6.4765    2.4142 C   0  0  0  0  0  0  0  0  0  0  0  0
   11.0085   -7.5997    2.1738 C   0  0  0  0  0  0  0  0  0  0  0  0
   11.3895   -8.9418    2.3853 N   0  0  0  0  0  0  0  0  0  0  0  0
   12.5259   -9.5027    2.8386 C   0  0  0  0  0  0  0  0  0  0  0  0
   13.9567   -8.7878    3.3230 S   0  0  0  0  0  0  0  0  0  0  0  0
   12.4787  -10.9154    2.9079 N   0  0  0  0  0  0  0  0  0  0  0  0
   11.4589  -11.7837    2.5938 C   0  0  0  0  0  0  0  0  0  0  0  0
   10.3844  -11.4064    2.1311 O   0  0  0  0  0  0  0  0  0  0  0  0
   11.7320  -13.2381    2.8329 C   0  0  0  0  0  0  0  0  0  0  0  0
   12.7704  -13.7199    3.6475 C   0  0  0  0  0  0  0  0  0  0  0  0
   12.9550  -15.0898    3.8325 C   0  0  0  0  0  0  0  0  0  0  0  0
   12.0934  -15.9899    3.1966 C   0  0  0  0  0  0  0  0  0  0  0  0
   12.3231  -17.7032    3.4195 Cl  0  0  0  0  0  0  0  0  0  0  0  0
   11.0463  -15.5306    2.3894 C   0  0  0  0  0  0  0  0  0  0  0  0
   10.8686  -14.1602    2.2181 C   0  0  0  0  0  0  0  0  0  0  0  0
    9.7022   -7.4002    1.6775 C   0  0  0  0  0  0  0  0  0  0  0  0
    9.2167   -6.1252    1.4307 C   0  0  0  0  0  0  0  0  0  0  0  0
    9.0555    5.8714    0.7562 H   0  0  0  0  0  0  0  0  0  0  0  0
   10.6207    5.0951    0.4235 H   0  0  0  0  0  0  0  0  0  0  0  0
   10.0088    5.1809    2.0895 H   0  0  0  0  0  0  0  0  0  0  0  0
    8.6826    3.5811   -0.2021 H   0  0  0  0  0  0  0  0  0  0  0  0
    8.0761    3.6662    1.4495 H   0  0  0  0  0  0  0  0  0  0  0  0
   10.1944    2.5828    2.2841 H   0  0  0  0  0  0  0  0  0  0  0  0
   10.8017    2.4979    0.6316 H   0  0  0  0  0  0  0  0  0  0  0  0
    8.8534    1.0272   -0.0091 H   0  0  0  0  0  0  0  0  0  0  0  0
    8.2455    1.1124    1.6428 H   0  0  0  0  0  0  0  0  0  0  0  0
   10.3631    0.0306    2.4790 H   0  0  0  0  0  0  0  0  0  0  0  0
   10.9724   -0.0541    0.8264 H   0  0  0  0  0  0  0  0  0  0  0  0
    9.0267   -1.5390    0.1828 H   0  0  0  0  0  0  0  0  0  0  0  0
    8.4146   -1.4534    1.8373 H   0  0  0  0  0  0  0  0  0  0  0  0
   10.5155   -2.5347    2.6800 H   0  0  0  0  0  0  0  0  0  0  0  0
   11.1349   -2.6201    1.0104 H   0  0  0  0  0  0  0  0  0  0  0  0
   11.9747   -4.3400    2.3648 H   0  0  0  0  0  0  0  0  0  0  0  0
   12.8205   -6.6093    2.7961 H   0  0  0  0  0  0  0  0  0  0  0  0
   10.6710   -9.6380    2.1441 H   0  0  0  0  0  0  0  0  0  0  0  0
   13.3677  -11.2914    3.2186 H   0  0  0  0  0  0  0  0  0  0  0  0
   13.4387  -13.0368    4.1776 H   0  0  0  0  0  0  0  0  0  0  0  0
   13.7567  -15.4633    4.4711 H   0  0  0  0  0  0  0  0  0  0  0  0
   10.3805  -16.2466    1.9051 H   0  0  0  0  0  0  0  0  0  0  0  0
   10.0536  -13.7775    1.6014 H   0  0  0  0  0  0  0  0  0  0  0  0
    9.0613   -8.2654    1.4845 H   0  0  0  0  0  0  0  0  0  0  0  0
    8.2062   -5.9719    1.0469 H   0  0  0  0  0  0  0  0  0  0  0  0
  1  2  1  0
  1 28  1  0
  1 29  1  0
  1 30  1  0
  2  3  1  0
  2 31  1  0
  2 32  1  0
  3  4  1  0
  3 33  1  0
  3 34  1  0
  4  5  1  0
  4 35  1  0
  4 36  1  0
  5  6  1  0
  5 37  1  0
  5 38  1  0
  6  7  1  0
  6 39  1  0
  6 40  1  0
  7  8  1  0
  7 41  1  0
  7 42  1  0
  8  9  1  0
  9 10  2  0
  9 27  1  0
 10 11  1  0
 10 43  1  0
 11 12  2  0
 11 44  1  0
 12 13  1  0
 12 26  1  0
 13 14  1  0
 13 45  1  0
 14 15  2  0
 14 16  1  0
 16 17  1  0
 16 46  1  0
 17 18  2  0
 17 19  1  0
 19 20  2  0
 19 25  1  0
 20 21  1  0
 20 47  1  0
 21 22  2  0
 21 48  1  0
 22 23  1  0
 22 24  1  0
 24 25  2  0
 24 49  1  0
 25 50  1  0
 26 27  2  0
 26 51  1  0
 27 52  1  0
M  END

