
     RDKit          3D

 52 54  0  0  0  0  0  0  0  0999 V2000
    2.7167    1.9984   -2.2335 O   0  0  0  0  0  0  0  0  0  0  0  0
    2.7590    1.5649   -1.0939 C   0  0  0  0  0  0  0  0  0  0  0  0
    3.4254    2.3972    0.0041 C   0  0  0  0  0  0  0  0  0  0  0  0
    3.5135    1.6600    1.2045 O   0  0  0  0  0  0  0  0  0  0  0  0
    3.9927    2.2308    2.3463 C   0  0  0  0  0  0  0  0  0  0  0  0
    4.4753    3.5452    2.3961 C   0  0  0  0  0  0  0  0  0  0  0  0
    4.9308    4.0804    3.6055 C   0  0  0  0  0  0  0  0  0  0  0  0
    4.9048    3.3115    4.7678 C   0  0  0  0  0  0  0  0  0  0  0  0
    4.4240    2.0001    4.7108 C   0  0  0  0  0  0  0  0  0  0  0  0
    3.9657    1.4271    3.5148 C   0  0  0  0  0  0  0  0  0  0  0  0
    3.4519    0.0280    3.5016 C   0  0  0  0  0  0  0  0  0  0  0  0
    2.5315   -0.3954    4.4779 C   0  0  0  0  0  0  0  0  0  0  0  0
    2.0633   -1.7119    4.5052 C   0  0  0  0  0  0  0  0  0  0  0  0
    2.5073   -2.6363    3.5563 C   0  0  0  0  0  0  0  0  0  0  0  0
    3.4257   -2.2322    2.5813 C   0  0  0  0  0  0  0  0  0  0  0  0
    3.8917   -0.9157    2.5524 C   0  0  0  0  0  0  0  0  0  0  0  0
    2.2277    0.3849   -0.6889 N   0  0  0  0  0  0  0  0  0  0  0  0
    1.5745   -0.5303   -1.6056 C   0  0  0  0  0  0  0  0  0  0  0  0
    2.4883   -1.6603   -2.0966 C   0  0  0  0  0  0  0  0  0  0  0  0
    1.7696   -2.6309   -3.0358 C   0  0  0  0  0  0  0  0  0  0  0  0
    2.6926   -3.7434   -3.5410 C   0  0  0  0  0  0  0  0  0  0  0  0
    2.0111   -4.7031   -4.4158 N   0  0  0  0  0  0  0  0  0  0  0  0
    2.0796   -4.5735   -5.7728 C   0  0  0  0  0  0  0  0  0  0  0  0
    1.4433   -5.4389   -6.6202 C   0  0  0  0  0  0  0  0  0  0  0  0
    0.6903   -6.5046   -6.0481 C   0  0  0  0  0  0  0  0  0  0  0  0
    0.6084   -6.6494   -4.6903 C   0  0  0  0  0  0  0  0  0  0  0  0
    1.2662   -5.7339   -3.7744 C   0  0  0  0  0  0  0  0  0  0  0  0
    1.2242   -5.7868   -2.5512 O   0  0  0  0  0  0  0  0  0  0  0  0
    2.8256    3.3164    0.1364 H   0  0  0  0  0  0  0  0  0  0  0  0
    4.4210    2.6985   -0.3663 H   0  0  0  0  0  0  0  0  0  0  0  0
    4.4962    4.1600    1.4963 H   0  0  0  0  0  0  0  0  0  0  0  0
    5.3075    5.1061    3.6284 H   0  0  0  0  0  0  0  0  0  0  0  0
    5.2627    3.7230    5.7142 H   0  0  0  0  0  0  0  0  0  0  0  0
    4.4184    1.3869    5.6152 H   0  0  0  0  0  0  0  0  0  0  0  0
    2.1653    0.3238    5.2148 H   0  0  0  0  0  0  0  0  0  0  0  0
    1.3426   -2.0140    5.2696 H   0  0  0  0  0  0  0  0  0  0  0  0
    2.1416   -3.6660    3.5748 H   0  0  0  0  0  0  0  0  0  0  0  0
    3.7889   -2.9511    1.8418 H   0  0  0  0  0  0  0  0  0  0  0  0
    4.6151   -0.6145    1.7929 H   0  0  0  0  0  0  0  0  0  0  0  0
    2.3575    0.1212    0.2830 H   0  0  0  0  0  0  0  0  0  0  0  0
    1.2262    0.0656   -2.4625 H   0  0  0  0  0  0  0  0  0  0  0  0
    0.6853   -0.9554   -1.1098 H   0  0  0  0  0  0  0  0  0  0  0  0
    2.8835   -2.2123   -1.2248 H   0  0  0  0  0  0  0  0  0  0  0  0
    3.3588   -1.2096   -2.6051 H   0  0  0  0  0  0  0  0  0  0  0  0
    1.3548   -2.0799   -3.8990 H   0  0  0  0  0  0  0  0  0  0  0  0
    0.9207   -3.1004   -2.5127 H   0  0  0  0  0  0  0  0  0  0  0  0
    3.0852   -4.3110   -2.6857 H   0  0  0  0  0  0  0  0  0  0  0  0
    3.5426   -3.3211   -4.0992 H   0  0  0  0  0  0  0  0  0  0  0  0
    2.6794   -3.7366   -6.1386 H   0  0  0  0  0  0  0  0  0  0  0  0
    1.5242   -5.3070   -7.6991 H   0  0  0  0  0  0  0  0  0  0  0  0
    0.1744   -7.2126   -6.7033 H   0  0  0  0  0  0  0  0  0  0  0  0
    0.0398   -7.4552   -4.2237 H   0  0  0  0  0  0  0  0  0  0  0  0
  1  2  2  0
  2  3  1  0
  2 17  1  0
  3  4  1  0
  3 29  1  0
  3 30  1  0
  4  5  1  0
  5  6  2  0
  5 10  1  0
  6  7  1  0
  6 31  1  0
  7  8  2  0
  7 32  1  0
  8  9  1  0
  8 33  1  0
  9 10  2  0
  9 34  1  0
 10 11  1  0
 11 12  2  0
 11 16  1  0
 12 13  1  0
 12 35  1  0
 13 14  2  0
 13 36  1  0
 14 15  1  0
 14 37  1  0
 15 16  2  0
 15 38  1  0
 16 39  1  0
 17 18  1  0
 17 40  1  0
 18 19  1  0
 18 41  1  0
 18 42  1  0
 19 20  1  0
 19 43  1  0
 19 44  1  0
 20 21  1  0
 20 45  1  0
 20 46  1  0
 21 22  1  0
 21 47  1  0
 21 48  1  0
 22 23  1  0
 22 27  1  0
 23 24  2  0
 23 49  1  0
 24 25  1  0
 24 50  1  0
 25 26  2  0
 25 51  1  0
 26 27  1  0
 26 52  1  0
 27 28  2  0
M  END

