
     RDKit          3D

 67 70  0  0  0  0  0  0  0  0999 V2000
    0.8930    3.4562    2.8597 C   0  0  0  0  0  0  0  0  0  0  0  0
    2.1966    3.8153    3.2539 O   0  0  0  0  0  0  0  0  0  0  0  0
    3.1111    2.8378    3.4923 C   0  0  0  0  0  0  0  0  0  0  0  0
    2.8524    1.4621    3.3886 C   0  0  0  0  0  0  0  0  0  0  0  0
    3.8684    0.5383    3.6548 C   0  0  0  0  0  0  0  0  0  0  0  0
    5.1531    0.9521    4.0372 C   0  0  0  0  0  0  0  0  0  0  0  0
    6.2569   -0.0572    4.2989 C   0  0  0  0  0  0  0  0  0  0  0  0
    6.0771   -0.8936    5.5057 N   0  0  0  0  0  0  0  0  0  0  0  0
    5.4476   -2.1055    5.3245 C   0  0  0  0  0  0  0  0  0  0  0  0
    4.9136   -2.4140    4.2755 O   0  0  0  0  0  0  0  0  0  0  0  0
    5.4262   -3.0905    6.5134 C   0  0  0  0  0  0  0  0  0  0  0  0
    4.7194   -4.2599    6.2169 O   0  0  0  0  0  0  0  0  0  0  0  0
    3.3563   -4.2681    6.2230 C   0  0  0  0  0  0  0  0  0  0  0  0
    2.7570   -5.5167    5.9885 C   0  0  0  0  0  0  0  0  0  0  0  0
    1.3700   -5.6414    6.0034 C   0  0  0  0  0  0  0  0  0  0  0  0
    0.5578   -4.5279    6.2545 C   0  0  0  0  0  0  0  0  0  0  0  0
    1.1571   -3.2887    6.4834 C   0  0  0  0  0  0  0  0  0  0  0  0
    2.5500   -3.1474    6.4680 C   0  0  0  0  0  0  0  0  0  0  0  0
    6.8752   -0.6087    6.6935 C   0  0  1  0  0  0  0  0  0  0  0  0
    8.3090   -1.1976    6.5484 C   0  0  0  0  0  0  0  0  0  0  0  0
    8.6556   -1.7906    5.5413 O   0  0  0  0  0  0  0  0  0  0  0  0
    9.1047   -1.0472    7.6424 N   0  0  0  0  0  0  0  0  0  0  0  0
   10.4384   -1.6357    7.7340 C   0  0  0  0  0  0  0  0  0  0  0  0
   10.4676   -2.9594    8.4757 C   0  0  0  0  0  0  0  0  0  0  0  0
    9.9857   -4.1257    7.8562 C   0  0  0  0  0  0  0  0  0  0  0  0
    9.9827   -5.3423    8.5418 C   0  0  0  0  0  0  0  0  0  0  0  0
   10.4645   -5.4125    9.8542 C   0  0  0  0  0  0  0  0  0  0  0  0
   10.9509   -4.2600   10.4759 C   0  0  0  0  0  0  0  0  0  0  0  0
   10.9511   -3.0413    9.7886 C   0  0  0  0  0  0  0  0  0  0  0  0
    6.8361    0.8612    7.1146 C   0  0  0  0  0  0  0  0  0  0  0  0
    5.7043    1.3412    7.7928 C   0  0  0  0  0  0  0  0  0  0  0  0
    5.6140    2.6787    8.1810 C   0  0  0  0  0  0  0  0  0  0  0  0
    6.6606    3.5621    7.8980 C   0  0  0  0  0  0  0  0  0  0  0  0
    7.7924    3.0976    7.2237 C   0  0  0  0  0  0  0  0  0  0  0  0
    7.8784    1.7572    6.8330 C   0  0  0  0  0  0  0  0  0  0  0  0
    5.3946    2.3332    4.1303 C   0  0  0  0  0  0  0  0  0  0  0  0
    4.3960    3.2659    3.8630 C   0  0  0  0  0  0  0  0  0  0  0  0
    0.3374    4.3937    2.7202 H   0  0  0  0  0  0  0  0  0  0  0  0
    0.3803    2.8493    3.6283 H   0  0  0  0  0  0  0  0  0  0  0  0
    0.8887    2.8944    1.9078 H   0  0  0  0  0  0  0  0  0  0  0  0
    1.8690    1.0960    3.0920 H   0  0  0  0  0  0  0  0  0  0  0  0
    3.6640   -0.5298    3.5566 H   0  0  0  0  0  0  0  0  0  0  0  0
    7.2221    0.4571    4.3880 H   0  0  0  0  0  0  0  0  0  0  0  0
    6.3343   -0.7510    3.4507 H   0  0  0  0  0  0  0  0  0  0  0  0
    5.0294   -2.6058    7.4251 H   0  0  0  0  0  0  0  0  0  0  0  0
    6.4576   -3.4109    6.7281 H   0  0  0  0  0  0  0  0  0  0  0  0
    3.4065   -6.3730    5.7959 H   0  0  0  0  0  0  0  0  0  0  0  0
    0.9174   -6.6192    5.8180 H   0  0  0  0  0  0  0  0  0  0  0  0
   -0.5301   -4.6271    6.2655 H   0  0  0  0  0  0  0  0  0  0  0  0
    0.5376   -2.4074    6.6706 H   0  0  0  0  0  0  0  0  0  0  0  0
    2.9856   -2.1602    6.6243 H   0  0  0  0  0  0  0  0  0  0  0  0
    6.4257   -1.1632    7.5303 H   0  0  0  0  0  0  0  0  0  0  0  0
    8.7272   -0.5820    8.4603 H   0  0  0  0  0  0  0  0  0  0  0  0
   11.1067   -0.9118    8.2263 H   0  0  0  0  0  0  0  0  0  0  0  0
   10.7870   -1.7721    6.7008 H   0  0  0  0  0  0  0  0  0  0  0  0
    9.6174   -4.0708    6.8281 H   0  0  0  0  0  0  0  0  0  0  0  0
    9.6081   -6.2425    8.0477 H   0  0  0  0  0  0  0  0  0  0  0  0
   10.4644   -6.3660   10.3884 H   0  0  0  0  0  0  0  0  0  0  0  0
   11.3339   -4.3082   11.4986 H   0  0  0  0  0  0  0  0  0  0  0  0
   11.3381   -2.1428   10.2795 H   0  0  0  0  0  0  0  0  0  0  0  0
    4.8780    0.6588    8.0104 H   0  0  0  0  0  0  0  0  0  0  0  0
    4.7232    3.0330    8.7053 H   0  0  0  0  0  0  0  0  0  0  0  0
    6.5932    4.6095    8.2026 H   0  0  0  0  0  0  0  0  0  0  0  0
    8.6146    3.7809    6.9964 H   0  0  0  0  0  0  0  0  0  0  0  0
    8.7715    1.4117    6.3075 H   0  0  0  0  0  0  0  0  0  0  0  0
    6.3864    2.6899    4.4200 H   0  0  0  0  0  0  0  0  0  0  0  0
    4.5861    4.3388    3.9347 H   0  0  0  0  0  0  0  0  0  0  0  0
  1  2  1  0
  1 38  1  0
  1 39  1  0
  1 40  1  0
  2  3  1  0
  3  4  2  0
  3 37  1  0
  4  5  1  0
  4 41  1  0
  5  6  2  0
  5 42  1  0
  6  7  1  0
  6 36  1  0
  7  8  1  0
  7 43  1  0
  7 44  1  0
  8  9  1  0
  8 19  1  0
  9 10  2  0
  9 11  1  0
 11 12  1  0
 11 45  1  0
 11 46  1  0
 12 13  1  0
 13 14  2  0
 13 18  1  0
 14 15  1  0
 14 47  1  0
 15 16  2  0
 15 48  1  0
 16 17  1  0
 16 49  1  0
 17 18  2  0
 17 50  1  0
 18 51  1  0
 19 20  1  0
 19 30  1  0
 19 52  1  1
 20 21  2  0
 20 22  1  0
 22 23  1  0
 22 53  1  0
 23 24  1  0
 23 54  1  0
 23 55  1  0
 24 25  2  0
 24 29  1  0
 25 26  1  0
 25 56  1  0
 26 27  2  0
 26 57  1  0
 27 28  1  0
 27 58  1  0
 28 29  2  0
 28 59  1  0
 29 60  1  0
 30 31  2  0
 30 35  1  0
 31 32  1  0
 31 61  1  0
 32 33  2  0
 32 62  1  0
 33 34  1  0
 33 63  1  0
 34 35  2  0
 34 64  1  0
 35 65  1  0
 36 37  2  0
 36 66  1  0
 37 67  1  0
M  END

