
     RDKit          3D

 42 45  0  0  0  0  0  0  0  0999 V2000
    3.3304    0.3204    0.9042 C   0  0  0  0  0  0  0  0  0  0  0  0
    2.4282    0.1714   -0.1846 O   0  0  0  0  0  0  0  0  0  0  0  0
    2.9281   -0.5065   -1.2701 C   0  0  0  0  0  0  0  0  0  0  0  0
    3.5764    0.2113   -2.3147 C   0  0  0  0  0  0  0  0  0  0  0  0
    3.6810    1.6323   -2.2937 C   0  0  0  0  0  0  0  0  0  0  0  0
    4.3052    2.3138   -3.3154 C   0  0  0  0  0  0  0  0  0  0  0  0
    4.8466    1.6024   -4.4176 C   0  0  0  0  0  0  0  0  0  0  0  0
    4.7565    0.2285   -4.4765 C   0  0  0  0  0  0  0  0  0  0  0  0
    4.1285   -0.5137   -3.4327 C   0  0  0  0  0  0  0  0  0  0  0  0
    4.0287   -1.9345   -3.4901 C   0  0  0  0  0  0  0  0  0  0  0  0
    4.6064   -2.6125   -4.5456 O   0  0  0  0  0  0  0  0  0  0  0  0
    5.9743   -2.9558   -4.3613 C   0  0  0  0  0  0  0  0  0  0  0  0
    3.3271   -2.6016   -2.4902 C   0  0  0  0  0  0  0  0  0  0  0  0
    2.7783   -1.8821   -1.3677 C   0  0  0  0  0  0  0  0  0  0  0  0
    2.1292   -2.8652   -0.5185 C   0  0  0  0  0  0  0  0  0  0  0  0
    1.4012   -2.7884    0.6769 C   0  0  0  0  0  0  0  0  0  0  0  0
    0.8740   -3.9508    1.2531 C   0  0  0  0  0  0  0  0  0  0  0  0
    0.0856   -3.8962    2.5412 C   0  0  0  0  0  0  0  0  0  0  0  0
    1.0870   -5.1876    0.6054 C   0  0  0  0  0  0  0  0  0  0  0  0
    1.7970   -5.2933   -0.5918 C   0  0  0  0  0  0  0  0  0  0  0  0
    2.3150   -4.1198   -1.1519 C   0  0  0  0  0  0  0  0  0  0  0  0
    3.0285   -3.9532   -2.3340 N   0  0  0  0  0  0  0  0  0  0  0  0
    3.2682   -5.0296   -3.2730 C   0  0  0  0  0  0  0  0  0  0  0  0
    2.8026    0.8876    1.6842 H   0  0  0  0  0  0  0  0  0  0  0  0
    4.2363    0.8766    0.6046 H   0  0  0  0  0  0  0  0  0  0  0  0
    3.6352   -0.6588    1.3140 H   0  0  0  0  0  0  0  0  0  0  0  0
    3.2324    2.1696   -1.4564 H   0  0  0  0  0  0  0  0  0  0  0  0
    4.3707    3.4044   -3.2874 H   0  0  0  0  0  0  0  0  0  0  0  0
    5.3250    2.1509   -5.2333 H   0  0  0  0  0  0  0  0  0  0  0  0
    5.1433   -0.3153   -5.3396 H   0  0  0  0  0  0  0  0  0  0  0  0
    6.3131   -3.4429   -5.2872 H   0  0  0  0  0  0  0  0  0  0  0  0
    6.1069   -3.6552   -3.5159 H   0  0  0  0  0  0  0  0  0  0  0  0
    6.5942   -2.0617   -4.1759 H   0  0  0  0  0  0  0  0  0  0  0  0
    1.2335   -1.8166    1.1446 H   0  0  0  0  0  0  0  0  0  0  0  0
   -0.0007   -2.8657    2.9165 H   0  0  0  0  0  0  0  0  0  0  0  0
    0.5597   -4.5015    3.3327 H   0  0  0  0  0  0  0  0  0  0  0  0
   -0.9366   -4.2891    2.4073 H   0  0  0  0  0  0  0  0  0  0  0  0
    0.6775   -6.0970    1.0555 H   0  0  0  0  0  0  0  0  0  0  0  0
    1.9385   -6.2651   -1.0685 H   0  0  0  0  0  0  0  0  0  0  0  0
    2.3305   -5.5733   -3.4767 H   0  0  0  0  0  0  0  0  0  0  0  0
    4.0045   -5.7535   -2.8803 H   0  0  0  0  0  0  0  0  0  0  0  0
    3.6403   -4.6109   -4.2130 H   0  0  0  0  0  0  0  0  0  0  0  0
  1  2  1  0
  1 24  1  0
  1 25  1  0
  1 26  1  0
  2  3  1  0
  3  4  2  0
  3 14  1  0
  4  5  1  0
  4  9  1  0
  5  6  2  0
  5 27  1  0
  6  7  1  0
  6 28  1  0
  7  8  2  0
  7 29  1  0
  8  9  1  0
  8 30  1  0
  9 10  2  0
 10 11  1  0
 10 13  1  0
 11 12  1  0
 12 31  1  0
 12 32  1  0
 12 33  1  0
 13 14  2  0
 13 22  1  0
 14 15  1  0
 15 16  2  0
 15 21  1  0
 16 17  1  0
 16 34  1  0
 17 18  1  0
 17 19  2  0
 18 35  1  0
 18 36  1  0
 18 37  1  0
 19 20  1  0
 19 38  1  0
 20 21  2  0
 20 39  1  0
 21 22  1  0
 22 23  1  0
 23 40  1  0
 23 41  1  0
 23 42  1  0
M  END

