
     RDKit          3D

 44 45  0  0  0  0  0  0  0  0999 V2000
    7.0208    0.7495    1.1199 C   0  0  0  0  0  0  0  0  0  0  0  0
    6.1454    1.0228   -0.1036 C   0  0  0  0  0  0  0  0  0  0  0  0
    4.9403    0.0712   -0.2409 C   0  0  1  0  0  0  0  0  0  0  0  0
    3.9824    0.1221    0.8668 N   0  0  0  0  0  0  0  0  0  0  0  0
    4.1534    0.3166   -1.5502 C   0  0  0  0  0  0  0  0  0  0  0  0
    4.8764   -0.0667   -2.8238 C   0  0  0  0  0  0  0  0  0  0  0  0
    5.3506    0.9117   -3.7208 C   0  0  0  0  0  0  0  0  0  0  0  0
    5.0413    2.6238   -3.4302 Cl  0  0  0  0  0  0  0  0  0  0  0  0
    6.1065    0.6135   -4.8576 C   0  0  0  0  0  0  0  0  0  0  0  0
    6.4072   -0.7181   -5.1272 C   0  0  0  0  0  0  0  0  0  0  0  0
    5.9334   -1.7246   -4.2891 C   0  0  0  0  0  0  0  0  0  0  0  0
    5.1658   -1.4295   -3.1439 C   0  0  0  0  0  0  0  0  0  0  0  0
    4.7161   -2.4809   -2.3127 N   0  0  0  0  0  0  0  0  0  0  0  0
    3.2963   -2.6092   -1.9844 C   0  0  0  0  0  0  0  0  0  0  0  0
    5.5183   -3.6841   -2.1899 C   0  0  1  0  0  0  0  0  0  0  0  0
    5.5043   -4.2434   -0.7319 C   0  0  0  0  0  0  0  0  0  0  0  0
    5.9233   -5.7078   -0.7767 C   0  0  0  0  0  0  0  0  0  0  0  0
    4.9468   -6.3600   -2.1734 S   0  0  2  0  0  0  0  0  0  0  0  0
    3.5411   -6.4189   -1.7331 O   0  0  0  0  0  0  0  0  0  0  0  0
    5.5920   -7.5184   -2.7990 O   0  0  0  0  0  0  0  0  0  0  0  0
    5.1478   -4.8422   -3.1774 C   0  0  0  0  0  0  0  0  0  0  0  0
    7.8721    1.4466    1.1692 H   0  0  0  0  0  0  0  0  0  0  0  0
    7.4323   -0.2743    1.1000 H   0  0  0  0  0  0  0  0  0  0  0  0
    6.4548    0.8609    2.0597 H   0  0  0  0  0  0  0  0  0  0  0  0
    6.7621    0.9520   -1.0161 H   0  0  0  0  0  0  0  0  0  0  0  0
    5.7721    2.0630   -0.0721 H   0  0  0  0  0  0  0  0  0  0  0  0
    5.3268   -0.9626   -0.2699 H   0  0  0  0  0  0  0  0  0  0  0  0
    3.6164    1.0712    0.9722 H   0  0  0  0  0  0  0  0  0  0  0  0
    4.4336   -0.1087    1.7512 H   0  0  0  0  0  0  0  0  0  0  0  0
    3.8815    1.3803   -1.5988 H   0  0  0  0  0  0  0  0  0  0  0  0
    3.2074   -0.2287   -1.4558 H   0  0  0  0  0  0  0  0  0  0  0  0
    6.4478    1.4194   -5.5078 H   0  0  0  0  0  0  0  0  0  0  0  0
    6.9929   -0.9771   -6.0126 H   0  0  0  0  0  0  0  0  0  0  0  0
    6.1378   -2.7634   -4.5482 H   0  0  0  0  0  0  0  0  0  0  0  0
    2.6835   -2.0391   -2.6977 H   0  0  0  0  0  0  0  0  0  0  0  0
    3.0507   -2.2643   -0.9648 H   0  0  0  0  0  0  0  0  0  0  0  0
    2.9853   -3.6643   -2.0583 H   0  0  0  0  0  0  0  0  0  0  0  0
    6.5568   -3.3994   -2.4070 H   0  0  0  0  0  0  0  0  0  0  0  0
    4.4916   -4.1791   -0.3099 H   0  0  0  0  0  0  0  0  0  0  0  0
    6.1690   -3.6420   -0.0944 H   0  0  0  0  0  0  0  0  0  0  0  0
    5.6587   -6.2964    0.1121 H   0  0  0  0  0  0  0  0  0  0  0  0
    6.9844   -5.8604   -1.0277 H   0  0  0  0  0  0  0  0  0  0  0  0
    4.1929   -4.6894   -3.6961 H   0  0  0  0  0  0  0  0  0  0  0  0
    5.9365   -5.0538   -3.9117 H   0  0  0  0  0  0  0  0  0  0  0  0
  1  2  1  0
  1 22  1  0
  1 23  1  0
  1 24  1  0
  2  3  1  0
  2 25  1  0
  2 26  1  0
  3  4  1  0
  3  5  1  0
  3 27  1  6
  4 28  1  0
  4 29  1  0
  5  6  1  0
  5 30  1  0
  5 31  1  0
  6  7  2  0
  6 12  1  0
  7  8  1  0
  7  9  1  0
  9 10  2  0
  9 32  1  0
 10 11  1  0
 10 33  1  0
 11 12  2  0
 11 34  1  0
 12 13  1  0
 13 14  1  0
 13 15  1  0
 14 35  1  0
 14 36  1  0
 14 37  1  0
 15 16  1  0
 15 21  1  0
 15 38  1  6
 16 17  1  0
 16 39  1  0
 16 40  1  0
 18 17  1  1
 17 41  1  0
 17 42  1  0
 18 19  2  0
 18 20  2  0
 18 21  1  0
 21 43  1  0
 21 44  1  0
M  END

