
     RDKit          3D

 63 66  0  0  0  0  0  0  0  0999 V2000
    1.1771    0.2765   -2.2866 C   0  0  0  0  0  0  0  0  0  0  0  0
    2.6430    0.5900   -2.1155 C   0  0  0  0  0  0  0  0  0  0  0  0
    3.5805   -0.4086   -1.8730 C   0  0  0  0  0  0  0  0  0  0  0  0
    4.9398   -0.0988   -1.7474 C   0  0  0  0  0  0  0  0  0  0  0  0
    5.4448    1.2046   -1.8409 C   0  0  0  0  0  0  0  0  0  0  0  0
    6.9393    1.5149   -1.7607 C   0  0  2  0  0  0  0  0  0  0  0  0
    7.8327    0.6059   -2.6214 C   0  0  0  0  0  0  0  0  0  0  0  0
    7.4261    1.6506   -0.3000 C   0  0  1  0  0  0  0  0  0  0  0  0
    6.7333    2.3445    0.2089 H   0  0  0  0  0  0  0  0  0  0  0  0
    7.5323    0.3675    0.5273 C   0  0  0  0  0  0  0  0  0  0  0  0
    8.3987    0.5517    1.8009 C   0  0  1  0  0  0  0  0  0  0  0  0
    7.8579    0.1678    2.6789 H   0  0  0  0  0  0  0  0  0  0  0  0
    9.5877   -0.2172    1.7547 O   0  0  0  0  0  0  0  0  0  0  0  0
    8.7189    2.0396    2.0315 C   0  0  0  0  0  0  0  0  0  0  0  0
    9.3485    2.6361    0.7860 C   0  0  0  0  0  0  0  0  0  0  0  0
   10.3483    3.3012    0.7604 O   0  0  0  0  0  0  0  0  0  0  0  0
    8.7150    2.3105   -0.3696 O   0  0  0  0  0  0  0  0  0  0  0  0
    4.4877    2.2397   -2.0288 C   0  0  0  0  0  0  0  0  0  0  0  0
    4.9099    3.6902   -2.0588 C   0  0  0  0  0  0  0  0  0  0  0  0
    3.1205    1.9203   -2.1963 C   0  0  0  0  0  0  0  0  0  0  0  0
    2.1653    2.9499   -2.4413 N   0  0  0  0  0  0  0  0  0  0  0  0
    2.1500    3.7502   -3.5656 C   0  0  0  0  0  0  0  0  0  0  0  0
    3.0004    3.6829   -4.4361 O   0  0  0  0  0  0  0  0  0  0  0  0
    1.0011    4.7234   -3.6543 C   0  0  0  0  0  0  0  0  0  0  0  0
    0.2571    5.1583   -2.5448 C   0  0  0  0  0  0  0  0  0  0  0  0
   -0.7881    6.0719   -2.7070 C   0  0  0  0  0  0  0  0  0  0  0  0
   -1.0994    6.5613   -3.9787 C   0  0  0  0  0  0  0  0  0  0  0  0
   -0.3539    6.1436   -5.0871 C   0  0  0  0  0  0  0  0  0  0  0  0
    0.6939    5.2375   -4.9244 C   0  0  0  0  0  0  0  0  0  0  0  0
    5.7018   -1.2050   -1.5146 O   0  0  0  0  0  0  0  0  0  0  0  0
    4.8869   -2.4072   -1.7050 C   0  0  2  0  0  0  0  0  0  0  0  0
    5.2217   -3.3621   -0.5656 C   0  0  0  0  0  0  0  0  0  0  0  0
    5.2568   -2.9925   -3.0695 C   0  0  0  0  0  0  0  0  0  0  0  0
    3.4171   -1.8961   -1.6784 C   0  0  0  0  0  0  0  0  0  0  0  0
    1.0023   -0.8047   -2.3717 H   0  0  0  0  0  0  0  0  0  0  0  0
    0.7644    0.7587   -3.1869 H   0  0  0  0  0  0  0  0  0  0  0  0
    0.5756    0.6302   -1.4290 H   0  0  0  0  0  0  0  0  0  0  0  0
    7.0732    2.5260   -2.1666 H   0  0  0  0  0  0  0  0  0  0  0  0
    7.7863   -0.4469   -2.3174 H   0  0  0  0  0  0  0  0  0  0  0  0
    8.8755    0.9515   -2.5612 H   0  0  0  0  0  0  0  0  0  0  0  0
    7.5180    0.6630   -3.6749 H   0  0  0  0  0  0  0  0  0  0  0  0
    7.9832   -0.4402   -0.0652 H   0  0  0  0  0  0  0  0  0  0  0  0
    6.5178    0.0301    0.7833 H   0  0  0  0  0  0  0  0  0  0  0  0
   10.1248    0.0790    1.0058 H   0  0  0  0  0  0  0  0  0  0  0  0
    9.4154    2.1694    2.8693 H   0  0  0  0  0  0  0  0  0  0  0  0
    7.7924    2.5934    2.2641 H   0  0  0  0  0  0  0  0  0  0  0  0
    5.7657    3.8923   -1.4013 H   0  0  0  0  0  0  0  0  0  0  0  0
    4.0839    4.3374   -1.7344 H   0  0  0  0  0  0  0  0  0  0  0  0
    5.1751    4.0054   -3.0810 H   0  0  0  0  0  0  0  0  0  0  0  0
    1.3109    2.9187   -1.8980 H   0  0  0  0  0  0  0  0  0  0  0  0
    0.5078    4.8140   -1.5380 H   0  0  0  0  0  0  0  0  0  0  0  0
   -1.3540    6.4098   -1.8352 H   0  0  0  0  0  0  0  0  0  0  0  0
   -1.9176    7.2750   -4.1051 H   0  0  0  0  0  0  0  0  0  0  0  0
   -0.5891    6.5308   -6.0817 H   0  0  0  0  0  0  0  0  0  0  0  0
    1.2986    4.9096   -5.7720 H   0  0  0  0  0  0  0  0  0  0  0  0
    6.2898   -3.6272   -0.5812 H   0  0  0  0  0  0  0  0  0  0  0  0
    4.6344   -4.2894   -0.6565 H   0  0  0  0  0  0  0  0  0  0  0  0
    4.9944   -2.9009    0.4075 H   0  0  0  0  0  0  0  0  0  0  0  0
    6.3311   -3.2280   -3.1095 H   0  0  0  0  0  0  0  0  0  0  0  0
    5.0301   -2.2751   -3.8735 H   0  0  0  0  0  0  0  0  0  0  0  0
    4.6892   -3.9169   -3.2612 H   0  0  0  0  0  0  0  0  0  0  0  0
    2.9312   -2.1247   -0.7131 H   0  0  0  0  0  0  0  0  0  0  0  0
    2.8136   -2.3783   -2.4637 H   0  0  0  0  0  0  0  0  0  0  0  0
  1  2  1  0
  1 35  1  0
  1 36  1  0
  1 37  1  0
  2  3  2  0
  2 20  1  0
  3  4  1  0
  3 34  1  0
  4  5  2  0
  4 30  1  0
  5  6  1  0
  5 18  1  0
  6  7  1  0
  6  8  1  0
  6 38  1  6
  7 39  1  0
  7 40  1  0
  7 41  1  0
  8  9  1  1
  8 10  1  0
  8 17  1  0
 10 11  1  0
 10 42  1  0
 10 43  1  0
 11 12  1  1
 11 13  1  0
 11 14  1  0
 13 44  1  0
 14 15  1  0
 14 45  1  0
 14 46  1  0
 15 16  2  0
 15 17  1  0
 18 19  1  0
 18 20  2  0
 19 47  1  0
 19 48  1  0
 19 49  1  0
 20 21  1  0
 21 22  1  0
 21 50  1  0
 22 23  2  0
 22 24  1  0
 24 25  2  0
 24 29  1  0
 25 26  1  0
 25 51  1  0
 26 27  2  0
 26 52  1  0
 27 28  1  0
 27 53  1  0
 28 29  2  0
 28 54  1  0
 29 55  1  0
 30 31  1  0
 31 32  1  1
 31 33  1  0
 31 34  1  0
 32 56  1  0
 32 57  1  0
 32 58  1  0
 33 59  1  0
 33 60  1  0
 33 61  1  0
 34 62  1  0
 34 63  1  0
M  END

