
     RDKit          3D

 45 47  0  0  0  0  0  0  0  0999 V2000
    4.4564    2.1506    3.6347 C   0  0  0  0  0  0  0  0  0  0  0  0
    4.5936    1.3052    2.3705 C   0  0  0  0  0  0  0  0  0  0  0  0
    3.3477    0.4697    1.9766 C   0  0  2  0  0  0  0  0  0  0  0  0
    3.6435   -0.1053    1.0850 H   0  0  0  0  0  0  0  0  0  0  0  0
    2.1679    1.3383    1.6168 C   0  0  0  0  0  0  0  0  0  0  0  0
    2.0031    2.0589    0.3887 C   0  0  0  0  0  0  0  0  0  0  0  0
    0.8569    2.8099    0.3670 C   0  0  0  0  0  0  0  0  0  0  0  0
   -0.0448    2.6490    1.8402 S   0  0  0  0  0  0  0  0  0  0  0  0
    1.1406    1.5636    2.4974 C   0  0  0  0  0  0  0  0  0  0  0  0
    1.0983    0.9131    3.8422 C   0  0  0  0  0  0  0  0  0  0  0  0
    1.7104   -0.4894    3.7350 C   0  0  0  0  0  0  0  0  0  0  0  0
    2.9885   -0.5255    3.0214 N   0  0  0  0  0  0  0  0  0  0  0  0
    3.7704   -1.6753    3.0130 C   0  0  0  0  0  0  0  0  0  0  0  0
    4.7770   -1.7716    2.3245 O   0  0  0  0  0  0  0  0  0  0  0  0
    3.3420   -2.7080    3.8307 N   0  0  0  0  0  0  0  0  0  0  0  0
    4.0103   -3.9298    3.9862 C   0  0  0  0  0  0  0  0  0  0  0  0
    5.2309   -4.3871    3.4185 C   0  0  0  0  0  0  0  0  0  0  0  0
    5.5171   -5.6174    3.8412 N   0  0  0  0  0  0  0  0  0  0  0  0
    4.5237   -5.9672    4.6628 N   0  0  0  0  0  0  0  0  0  0  0  0
    4.5119   -7.2843    5.2672 C   0  0  0  0  0  0  0  0  0  0  0  0
    4.2841   -8.3894    4.2390 C   0  0  0  0  0  0  0  0  0  0  0  0
    4.2709   -9.6118    4.9291 O   0  0  0  0  0  0  0  0  0  0  0  0
    4.1268  -10.7334    4.0989 C   0  0  0  0  0  0  0  0  0  0  0  0
    3.5818   -4.9845    4.7839 C   0  0  0  0  0  0  0  0  0  0  0  0
    5.3873    2.7059    3.8308 H   0  0  0  0  0  0  0  0  0  0  0  0
    4.2608    1.5212    4.5178 H   0  0  0  0  0  0  0  0  0  0  0  0
    3.6424    2.8894    3.5525 H   0  0  0  0  0  0  0  0  0  0  0  0
    5.4323    0.6007    2.4706 H   0  0  0  0  0  0  0  0  0  0  0  0
    4.8320    1.9567    1.5115 H   0  0  0  0  0  0  0  0  0  0  0  0
    2.7060    2.0125   -0.4453 H   0  0  0  0  0  0  0  0  0  0  0  0
    0.4811    3.4423   -0.4359 H   0  0  0  0  0  0  0  0  0  0  0  0
    0.0695    0.8176    4.2232 H   0  0  0  0  0  0  0  0  0  0  0  0
    1.6571    1.5118    4.5828 H   0  0  0  0  0  0  0  0  0  0  0  0
    0.9694   -1.1540    3.2461 H   0  0  0  0  0  0  0  0  0  0  0  0
    1.8670   -0.8625    4.7613 H   0  0  0  0  0  0  0  0  0  0  0  0
    2.4639   -2.6213    4.3204 H   0  0  0  0  0  0  0  0  0  0  0  0
    5.8819   -3.8536    2.7335 H   0  0  0  0  0  0  0  0  0  0  0  0
    3.7145   -7.3130    6.0239 H   0  0  0  0  0  0  0  0  0  0  0  0
    5.4710   -7.4573    5.7792 H   0  0  0  0  0  0  0  0  0  0  0  0
    5.0916   -8.3551    3.4813 H   0  0  0  0  0  0  0  0  0  0  0  0
    3.3249   -8.2163    3.7056 H   0  0  0  0  0  0  0  0  0  0  0  0
    4.1389  -11.6288    4.7375 H   0  0  0  0  0  0  0  0  0  0  0  0
    4.9518  -10.8130    3.3624 H   0  0  0  0  0  0  0  0  0  0  0  0
    3.1708  -10.7143    3.5366 H   0  0  0  0  0  0  0  0  0  0  0  0
    2.7061   -5.1011    5.4192 H   0  0  0  0  0  0  0  0  0  0  0  0
  1  2  1  0
  1 25  1  0
  1 26  1  0
  1 27  1  0
  2  3  1  0
  2 28  1  0
  2 29  1  0
  3  4  1  6
  3  5  1  0
  3 12  1  0
  5  6  1  0
  5  9  2  0
  6  7  2  0
  6 30  1  0
  7  8  1  0
  7 31  1  0
  8  9  1  0
  9 10  1  0
 10 11  1  0
 10 32  1  0
 10 33  1  0
 11 12  1  0
 11 34  1  0
 11 35  1  0
 12 13  1  0
 13 14  2  0
 13 15  1  0
 15 16  1  0
 15 36  1  0
 16 17  1  0
 16 24  2  0
 17 18  2  0
 17 37  1  0
 18 19  1  0
 19 20  1  0
 19 24  1  0
 20 21  1  0
 20 38  1  0
 20 39  1  0
 21 22  1  0
 21 40  1  0
 21 41  1  0
 22 23  1  0
 23 42  1  0
 23 43  1  0
 23 44  1  0
 24 45  1  0
M  END

