
     RDKit          3D

 52 54  0  0  0  0  0  0  0  0999 V2000
    1.2853   -0.4409    0.8135 C   0  0  0  0  0  0  0  0  0  0  0  0
    2.6654   -0.2496    0.2256 C   0  0  0  0  0  0  0  0  0  0  0  0
    3.2028    1.0447    0.1746 C   0  0  0  0  0  0  0  0  0  0  0  0
    4.4741    1.2864   -0.3731 C   0  0  0  0  0  0  0  0  0  0  0  0
    5.0666    2.5585   -0.4525 N   0  0  0  0  0  0  0  0  0  0  0  0
    4.5509    3.7516   -0.0299 C   0  0  0  0  0  0  0  0  0  0  0  0
    3.4679    3.9289    0.5016 O   0  0  0  0  0  0  0  0  0  0  0  0
    5.3838    4.8685   -0.2461 N   0  0  0  0  0  0  0  0  0  0  0  0
    6.6436    5.0145   -0.8164 C   0  0  0  0  0  0  0  0  0  0  0  0
    7.2370    6.2940   -0.9068 C   0  0  0  0  0  0  0  0  0  0  0  0
    8.4313    6.4799   -1.4437 N   0  0  0  0  0  0  0  0  0  0  0  0
    9.0981    5.4114   -1.9092 C   0  0  0  0  0  0  0  0  0  0  0  0
   10.3600    5.6173   -2.4176 N   0  0  0  0  0  0  0  0  0  0  0  0
    8.5101    4.1330   -1.8237 C   0  0  0  0  0  0  0  0  0  0  0  0
    7.3053    3.9530   -1.2876 N   0  0  0  0  0  0  0  0  0  0  0  0
    5.2060    0.1991   -0.8798 C   0  0  0  0  0  0  0  0  0  0  0  0
    4.6700   -1.0848   -0.8304 C   0  0  0  0  0  0  0  0  0  0  0  0
    3.4046   -1.3425   -0.2830 C   0  0  0  0  0  0  0  0  0  0  0  0
    2.8895   -2.7644   -0.2206 C   0  0  0  0  0  0  0  0  0  0  0  0
    3.2729   -3.5002    1.0727 C   0  0  0  0  0  0  0  0  0  0  0  0
    2.7038   -4.8369    1.1082 N   0  0  0  0  0  0  0  0  0  0  0  0
    3.0064   -5.5972    2.3083 C   0  0  0  0  0  0  0  0  0  0  0  0
    2.3307   -6.9547    2.3214 C   0  0  0  0  0  0  0  0  0  0  0  0
    2.9624   -8.0672    2.8965 C   0  0  0  0  0  0  0  0  0  0  0  0
    2.3306   -9.3127    2.9512 C   0  0  0  0  0  0  0  0  0  0  0  0
    1.0525   -9.4403    2.4138 C   0  0  0  0  0  0  0  0  0  0  0  0
    0.4389  -10.6343    2.4560 F   0  0  0  0  0  0  0  0  0  0  0  0
    0.3988   -8.3586    1.8272 C   0  0  0  0  0  0  0  0  0  0  0  0
    1.0429   -7.1204    1.7862 C   0  0  0  0  0  0  0  0  0  0  0  0
    0.8772    0.5124    1.1779 H   0  0  0  0  0  0  0  0  0  0  0  0
    1.2881   -1.1489    1.6584 H   0  0  0  0  0  0  0  0  0  0  0  0
    0.5792   -0.8433    0.0672 H   0  0  0  0  0  0  0  0  0  0  0  0
    2.6333    1.8866    0.5625 H   0  0  0  0  0  0  0  0  0  0  0  0
    5.9976    2.6181   -0.8759 H   0  0  0  0  0  0  0  0  0  0  0  0
    4.9382    5.7141    0.0926 H   0  0  0  0  0  0  0  0  0  0  0  0
    6.7081    7.1790   -0.5314 H   0  0  0  0  0  0  0  0  0  0  0  0
   10.5928    6.5821   -2.6237 H   0  0  0  0  0  0  0  0  0  0  0  0
   10.7436    4.9277   -3.0511 H   0  0  0  0  0  0  0  0  0  0  0  0
    9.0304    3.2442   -2.1970 H   0  0  0  0  0  0  0  0  0  0  0  0
    6.1951    0.3638   -1.3162 H   0  0  0  0  0  0  0  0  0  0  0  0
    5.2538   -1.9166   -1.2367 H   0  0  0  0  0  0  0  0  0  0  0  0
    3.2945   -3.3329   -1.0769 H   0  0  0  0  0  0  0  0  0  0  0  0
    1.7937   -2.7995   -0.3189 H   0  0  0  0  0  0  0  0  0  0  0  0
    2.8903   -2.9399    1.9441 H   0  0  0  0  0  0  0  0  0  0  0  0
    4.3819   -3.4946    1.1769 H   0  0  0  0  0  0  0  0  0  0  0  0
    2.9926   -5.3653    0.2841 H   0  0  0  0  0  0  0  0  0  0  0  0
    2.6488   -5.0061    3.1735 H   0  0  0  0  0  0  0  0  0  0  0  0
    4.0981   -5.7363    2.4801 H   0  0  0  0  0  0  0  0  0  0  0  0
    3.9699   -7.9622    3.3096 H   0  0  0  0  0  0  0  0  0  0  0  0
    2.8157  -10.1840    3.3958 H   0  0  0  0  0  0  0  0  0  0  0  0
   -0.6017   -8.4988    1.4125 H   0  0  0  0  0  0  0  0  0  0  0  0
    0.5539   -6.2603    1.3243 H   0  0  0  0  0  0  0  0  0  0  0  0
  1  2  1  0
  1 30  1  0
  1 31  1  0
  1 32  1  0
  2  3  2  0
  2 18  1  0
  3  4  1  0
  3 33  1  0
  4  5  1  0
  4 16  2  0
  5  6  1  0
  5 34  1  0
  6  7  2  0
  6  8  1  0
  8  9  1  0
  8 35  1  0
  9 10  2  0
  9 15  1  0
 10 11  1  0
 10 36  1  0
 11 12  2  0
 12 13  1  0
 12 14  1  0
 13 37  1  0
 13 38  1  0
 14 15  2  0
 14 39  1  0
 16 17  1  0
 16 40  1  0
 17 18  2  0
 17 41  1  0
 18 19  1  0
 19 20  1  0
 19 42  1  0
 19 43  1  0
 20 21  1  0
 20 44  1  0
 20 45  1  0
 21 22  1  0
 21 46  1  0
 22 23  1  0
 22 47  1  0
 22 48  1  0
 23 24  2  0
 23 29  1  0
 24 25  1  0
 24 49  1  0
 25 26  2  0
 25 50  1  0
 26 27  1  0
 26 28  1  0
 28 29  2  0
 28 51  1  0
 29 52  1  0
M  END

