
     RDKit          3D

 41 44  0  0  0  0  0  0  0  0999 V2000
    2.6482   -1.9402   -0.8771 O   0  0  0  0  0  0  0  0  0  0  0  0
    2.2344   -0.8209   -0.6944 C   0  0  0  0  0  0  0  0  0  0  0  0
    2.9962    0.2961   -0.6817 O   0  0  0  0  0  0  0  0  0  0  0  0
    4.3692    0.3621   -0.8729 C   0  0  0  0  0  0  0  0  0  0  0  0
    5.2171   -0.7225   -1.1151 C   0  0  0  0  0  0  0  0  0  0  0  0
    6.5853   -0.4763   -1.2845 C   0  0  0  0  0  0  0  0  0  0  0  0
    7.1204    0.8152   -1.2180 C   0  0  0  0  0  0  0  0  0  0  0  0
    8.6016    1.0317   -1.4192 C   0  0  1  0  0  0  0  0  0  0  0  0
    8.9312    2.0295   -2.9348 S   0  0  0  0  0  0  0  0  0  0  0  0
   10.5455    2.6476   -2.3456 C   0  0  0  0  0  0  0  0  0  0  0  0
   10.3546    3.1457   -0.9173 C   0  0  0  0  0  0  0  0  0  0  0  0
    9.4263    1.8751    0.0345 S   0  0  0  0  0  0  0  0  0  0  0  0
    6.2449    1.8870   -0.9707 C   0  0  0  0  0  0  0  0  0  0  0  0
    4.8841    1.6654   -0.8009 C   0  0  0  0  0  0  0  0  0  0  0  0
    0.7841   -0.4921   -0.4486 C   0  0  1  0  0  0  0  0  0  0  0  0
    0.4028    0.9484   -0.2386 C   0  0  0  0  0  0  0  0  0  0  0  0
    0.0644    1.7689   -1.3251 C   0  0  0  0  0  0  0  0  0  0  0  0
   -0.2667    3.1130   -1.1431 C   0  0  0  0  0  0  0  0  0  0  0  0
   -0.2600    3.6498    0.1474 C   0  0  0  0  0  0  0  0  0  0  0  0
   -0.6771    5.3317    0.3884 Cl  0  0  0  0  0  0  0  0  0  0  0  0
    0.0741    2.8550    1.2475 C   0  0  0  0  0  0  0  0  0  0  0  0
    0.4024    1.5130    1.0457 C   0  0  0  0  0  0  0  0  0  0  0  0
   -0.1861   -1.4287   -1.1650 C   0  0  0  0  0  0  0  0  0  0  0  0
    0.0269   -1.5861    0.3010 C   0  0  0  0  0  0  0  0  0  0  0  0
    4.8202   -1.7319   -1.1692 H   0  0  0  0  0  0  0  0  0  0  0  0
    7.2493   -1.3243   -1.4746 H   0  0  0  0  0  0  0  0  0  0  0  0
    9.0949    0.0561   -1.5319 H   0  0  0  0  0  0  0  0  0  0  0  0
   10.8552    3.4586   -3.0239 H   0  0  0  0  0  0  0  0  0  0  0  0
   11.3000    1.8463   -2.3909 H   0  0  0  0  0  0  0  0  0  0  0  0
    9.7992    4.0955   -0.9067 H   0  0  0  0  0  0  0  0  0  0  0  0
   11.3211    3.2955   -0.4100 H   0  0  0  0  0  0  0  0  0  0  0  0
    6.6439    2.9013   -0.9072 H   0  0  0  0  0  0  0  0  0  0  0  0
    4.1952    2.4899   -0.6078 H   0  0  0  0  0  0  0  0  0  0  0  0
    0.0609    1.3508   -2.3352 H   0  0  0  0  0  0  0  0  0  0  0  0
   -0.5306    3.7448   -1.9928 H   0  0  0  0  0  0  0  0  0  0  0  0
    0.0742    3.2871    2.2496 H   0  0  0  0  0  0  0  0  0  0  0  0
    0.6657    0.8931    1.9067 H   0  0  0  0  0  0  0  0  0  0  0  0
    0.2579   -2.1748   -1.8278 H   0  0  0  0  0  0  0  0  0  0  0  0
   -1.1217   -0.9824   -1.5116 H   0  0  0  0  0  0  0  0  0  0  0  0
    0.6167   -2.4400    0.6418 H   0  0  0  0  0  0  0  0  0  0  0  0
   -0.7593   -1.2501    0.9819 H   0  0  0  0  0  0  0  0  0  0  0  0
  1  2  2  0
  2  3  1  0
 15  2  1  6
  3  4  1  0
  4  5  2  0
  4 14  1  0
  5  6  1  0
  5 25  1  0
  6  7  2  0
  6 26  1  0
  7  8  1  0
  7 13  1  0
  8  9  1  0
  8 12  1  0
  8 27  1  6
  9 10  1  0
 10 11  1  0
 10 28  1  0
 10 29  1  0
 11 12  1  0
 11 30  1  0
 11 31  1  0
 13 14  2  0
 13 32  1  0
 14 33  1  0
 15 16  1  0
 15 23  1  0
 15 24  1  0
 16 17  2  0
 16 22  1  0
 17 18  1  0
 17 34  1  0
 18 19  2  0
 18 35  1  0
 19 20  1  0
 19 21  1  0
 21 22  2  0
 21 36  1  0
 22 37  1  0
 23 24  1  0
 23 38  1  0
 23 39  1  0
 24 40  1  0
 24 41  1  0
M  END

