
     RDKit          3D

 49 51  0  0  0  0  0  0  0  0999 V2000
    1.4118    0.6434    2.2281 C   0  0  0  0  0  0  0  0  0  0  0  0
    2.3598    0.2707    1.0846 C   0  0  1  0  0  0  0  0  0  0  0  0
    3.5067   -0.6514    1.5448 C   0  0  0  0  0  0  0  0  0  0  0  0
    3.0903   -1.9472    2.0586 N   0  0  0  0  0  0  0  0  0  0  0  0
    3.2114   -3.1009    1.3153 C   0  0  0  0  0  0  0  0  0  0  0  0
    3.6467   -3.1088    0.1747 O   0  0  0  0  0  0  0  0  0  0  0  0
    2.7924   -4.2395    1.9935 N   0  0  0  0  0  0  0  0  0  0  0  0
    2.7676   -5.5682    1.5346 C   0  0  0  0  0  0  0  0  0  0  0  0
    3.2197   -5.9649    0.2632 C   0  0  0  0  0  0  0  0  0  0  0  0
    3.1561   -7.3111   -0.1035 C   0  0  0  0  0  0  0  0  0  0  0  0
    2.6611   -8.2828    0.7684 C   0  0  0  0  0  0  0  0  0  0  0  0
    2.2021   -7.8809    2.0359 C   0  0  0  0  0  0  0  0  0  0  0  0
    2.2517   -6.5418    2.4112 C   0  0  0  0  0  0  0  0  0  0  0  0
    1.7516   -8.8102    2.9270 O   0  0  0  0  0  0  0  0  0  0  0  0
    1.1639   -9.9757    2.3660 C   0  0  0  0  0  0  0  0  0  0  0  0
    1.9444  -10.5801    1.1986 C   0  0  0  0  0  0  0  0  0  0  0  0
    1.9050  -11.7644    0.9328 O   0  0  0  0  0  0  0  0  0  0  0  0
    2.6324   -9.6549    0.4612 N   0  0  0  0  0  0  0  0  0  0  0  0
    1.6012   -0.3314   -0.1164 C   0  0  0  0  0  0  0  0  0  0  0  0
    0.6221    0.5912   -0.6864 N   0  0  0  0  0  0  0  0  0  0  0  0
    1.1635    1.5873   -1.6124 C   0  0  0  0  0  0  0  0  0  0  0  0
    1.3199    1.0416   -3.0363 C   0  0  0  0  0  0  0  0  0  0  0  0
    0.0966    0.5104   -3.5126 O   0  0  0  0  0  0  0  0  0  0  0  0
   -0.3956   -0.5201   -2.6745 C   0  0  0  0  0  0  0  0  0  0  0  0
   -0.5898   -0.0060   -1.2447 C   0  0  0  0  0  0  0  0  0  0  0  0
    1.9398    1.1713    3.0396 H   0  0  0  0  0  0  0  0  0  0  0  0
    0.9367   -0.2555    2.6588 H   0  0  0  0  0  0  0  0  0  0  0  0
    0.6059    1.2920    1.8562 H   0  0  0  0  0  0  0  0  0  0  0  0
    2.8558    1.1975    0.7405 H   0  0  0  0  0  0  0  0  0  0  0  0
    4.0925   -0.1366    2.3261 H   0  0  0  0  0  0  0  0  0  0  0  0
    4.1849   -0.8542    0.7037 H   0  0  0  0  0  0  0  0  0  0  0  0
    2.7262   -1.9914    3.0017 H   0  0  0  0  0  0  0  0  0  0  0  0
    2.4550   -4.1152    2.9400 H   0  0  0  0  0  0  0  0  0  0  0  0
    3.6137   -5.2177   -0.4202 H   0  0  0  0  0  0  0  0  0  0  0  0
    3.5145   -7.6130   -1.0916 H   0  0  0  0  0  0  0  0  0  0  0  0
    1.8865   -6.2770    3.4066 H   0  0  0  0  0  0  0  0  0  0  0  0
    0.1348   -9.7600    2.0130 H   0  0  0  0  0  0  0  0  0  0  0  0
    1.1025  -10.7297    3.1605 H   0  0  0  0  0  0  0  0  0  0  0  0
    3.1204   -9.9999   -0.3601 H   0  0  0  0  0  0  0  0  0  0  0  0
    1.0594   -1.2262    0.2313 H   0  0  0  0  0  0  0  0  0  0  0  0
    2.3395   -0.7033   -0.8553 H   0  0  0  0  0  0  0  0  0  0  0  0
    2.1295    1.9625   -1.2382 H   0  0  0  0  0  0  0  0  0  0  0  0
    0.4722    2.4494   -1.6445 H   0  0  0  0  0  0  0  0  0  0  0  0
    2.1105    0.2623   -3.0653 H   0  0  0  0  0  0  0  0  0  0  0  0
    1.6143    1.8428   -3.7329 H   0  0  0  0  0  0  0  0  0  0  0  0
    0.3009   -1.3855   -2.6809 H   0  0  0  0  0  0  0  0  0  0  0  0
   -1.3523   -0.8544   -3.1071 H   0  0  0  0  0  0  0  0  0  0  0  0
   -0.9400   -0.8168   -0.5856 H   0  0  0  0  0  0  0  0  0  0  0  0
   -1.3804    0.7673   -1.2638 H   0  0  0  0  0  0  0  0  0  0  0  0
  1  2  1  0
  1 26  1  0
  1 27  1  0
  1 28  1  0
  2  3  1  0
  2 19  1  0
  2 29  1  6
  3  4  1  0
  3 30  1  0
  3 31  1  0
  4  5  1  0
  4 32  1  0
  5  6  2  0
  5  7  1  0
  7  8  1  0
  7 33  1  0
  8  9  2  0
  8 13  1  0
  9 10  1  0
  9 34  1  0
 10 11  2  0
 10 35  1  0
 11 12  1  0
 11 18  1  0
 12 13  2  0
 12 14  1  0
 13 36  1  0
 14 15  1  0
 15 16  1  0
 15 37  1  0
 15 38  1  0
 16 17  2  0
 16 18  1  0
 18 39  1  0
 19 20  1  0
 19 40  1  0
 19 41  1  0
 20 21  1  0
 20 25  1  0
 21 22  1  0
 21 42  1  0
 21 43  1  0
 22 23  1  0
 22 44  1  0
 22 45  1  0
 23 24  1  0
 24 25  1  0
 24 46  1  0
 24 47  1  0
 25 48  1  0
 25 49  1  0
M  END

