
     RDKit          3D

 42 44  0  0  0  0  0  0  0  0999 V2000
    1.3867   -0.0696   -0.7720 O   0  0  0  0  0  0  0  0  0  0  0  0
    2.4046   -0.0794   -0.1011 C   0  0  0  0  0  0  0  0  0  0  0  0
    3.3350   -1.2880   -0.1000 C   0  0  0  0  0  0  0  0  0  0  0  0
    4.3015   -1.3093    0.9896 N   0  0  0  0  0  0  0  0  0  0  0  0
    5.0632   -2.5344    1.0517 C   0  0  0  0  0  0  0  0  0  0  0  0
    6.0823   -2.7506   -0.0856 C   0  0  0  0  0  0  0  0  0  0  0  0
    6.3776   -1.8524   -0.8646 O   0  0  0  0  0  0  0  0  0  0  0  0
    6.6510   -3.9871   -0.1687 N   0  0  0  0  0  0  0  0  0  0  0  0
    6.3781   -5.1419    0.6935 C   0  0  0  0  0  0  0  0  0  0  0  0
    7.4636   -6.1510    0.2905 C   0  0  0  0  0  0  0  0  0  0  0  0
    7.7154   -5.8247   -1.1890 C   0  0  0  0  0  0  0  0  0  0  0  0
    7.6162   -4.2959   -1.2320 C   0  0  0  0  0  0  0  0  0  0  0  0
    4.9871   -0.0206    1.1340 C   0  0  2  0  0  0  0  0  0  0  0  0
    6.1411   -0.0253    2.1428 C   0  0  0  0  0  0  0  0  0  0  0  0
    6.7546    1.3748    2.2928 C   0  0  0  0  0  0  0  0  0  0  0  0
    5.7065    2.4325    2.6594 C   0  0  0  0  0  0  0  0  0  0  0  0
    4.5366    2.4165    1.6700 C   0  0  0  0  0  0  0  0  0  0  0  0
    3.9327    1.0120    1.5679 C   0  0  1  0  0  0  0  0  0  0  0  0
    2.8106    0.9905    0.6411 N   0  0  0  0  0  0  0  0  0  0  0  0
    3.8166   -1.3086   -1.1013 H   0  0  0  0  0  0  0  0  0  0  0  0
    2.6819   -2.1733   -0.0410 H   0  0  0  0  0  0  0  0  0  0  0  0
    4.3508   -3.3781    1.0633 H   0  0  0  0  0  0  0  0  0  0  0  0
    5.6033   -2.6006    2.0115 H   0  0  0  0  0  0  0  0  0  0  0  0
    5.3670   -5.5510    0.5057 H   0  0  0  0  0  0  0  0  0  0  0  0
    6.4302   -4.8773    1.7618 H   0  0  0  0  0  0  0  0  0  0  0  0
    7.1552   -7.1921    0.4671 H   0  0  0  0  0  0  0  0  0  0  0  0
    8.3789   -5.9705    0.8787 H   0  0  0  0  0  0  0  0  0  0  0  0
    6.9259   -6.2732   -1.8152 H   0  0  0  0  0  0  0  0  0  0  0  0
    8.6826   -6.1972   -1.5573 H   0  0  0  0  0  0  0  0  0  0  0  0
    7.2641   -3.8947   -2.1936 H   0  0  0  0  0  0  0  0  0  0  0  0
    8.5885   -3.8139   -1.0211 H   0  0  0  0  0  0  0  0  0  0  0  0
    5.4022    0.3051    0.1578 H   0  0  0  0  0  0  0  0  0  0  0  0
    6.9233   -0.7248    1.8118 H   0  0  0  0  0  0  0  0  0  0  0  0
    5.7723   -0.3828    3.1215 H   0  0  0  0  0  0  0  0  0  0  0  0
    7.2368    1.6570    1.3399 H   0  0  0  0  0  0  0  0  0  0  0  0
    7.5556    1.3512    3.0502 H   0  0  0  0  0  0  0  0  0  0  0  0
    6.1658    3.4342    2.6901 H   0  0  0  0  0  0  0  0  0  0  0  0
    5.3249    2.2336    3.6775 H   0  0  0  0  0  0  0  0  0  0  0  0
    4.8772    2.7312    0.6678 H   0  0  0  0  0  0  0  0  0  0  0  0
    3.7571    3.1340    1.9811 H   0  0  0  0  0  0  0  0  0  0  0  0
    3.5871    0.7084    2.5773 H   0  0  0  0  0  0  0  0  0  0  0  0
    2.1543    1.7669    0.6534 H   0  0  0  0  0  0  0  0  0  0  0  0
  1  2  2  0
  2  3  1  0
  2 19  1  0
  3  4  1  0
  3 20  1  0
  3 21  1  0
  4  5  1  0
  4 13  1  0
  5  6  1  0
  5 22  1  0
  5 23  1  0
  6  7  2  0
  6  8  1  0
  8  9  1  0
  8 12  1  0
  9 10  1  0
  9 24  1  0
  9 25  1  0
 10 11  1  0
 10 26  1  0
 10 27  1  0
 11 12  1  0
 11 28  1  0
 11 29  1  0
 12 30  1  0
 12 31  1  0
 13 14  1  0
 13 18  1  0
 13 32  1  6
 14 15  1  0
 14 33  1  0
 14 34  1  0
 15 16  1  0
 15 35  1  0
 15 36  1  0
 16 17  1  0
 16 37  1  0
 16 38  1  0
 17 18  1  0
 17 39  1  0
 17 40  1  0
 18 19  1  0
 18 41  1  1
 19 42  1  0
M  END

