
     RDKit          3D

 52 55  0  0  0  0  0  0  0  0999 V2000
   10.0993    4.0229    9.3217 C   0  0  0  0  0  0  0  0  0  0  0  0
    9.6571    3.8380    7.9963 O   0  0  0  0  0  0  0  0  0  0  0  0
    9.2514    2.6012    7.6002 C   0  0  0  0  0  0  0  0  0  0  0  0
    9.2643    1.4599    8.4098 C   0  0  0  0  0  0  0  0  0  0  0  0
    8.7988    0.2247    7.9446 C   0  0  0  0  0  0  0  0  0  0  0  0
    8.3075    0.1163    6.6370 C   0  0  0  0  0  0  0  0  0  0  0  0
    7.8145   -1.0818    6.0936 N   0  0  0  0  0  0  0  0  0  0  0  0
    7.7150   -2.3111    6.6582 C   0  0  0  0  0  0  0  0  0  0  0  0
    8.0509   -2.6199    7.7943 O   0  0  0  0  0  0  0  0  0  0  0  0
    7.0998   -3.3158    5.6457 C   0  0  0  0  0  0  0  0  0  0  0  0
    6.8055   -2.9069    4.5251 O   0  0  0  0  0  0  0  0  0  0  0  0
    6.8953   -4.6917    6.0550 C   0  0  0  0  0  0  0  0  0  0  0  0
    7.1791   -5.2929    7.2833 C   0  0  0  0  0  0  0  0  0  0  0  0
    6.8482   -6.6117    7.2582 N   0  0  0  0  0  0  0  0  0  0  0  0
    6.9724   -7.5645    8.3632 C   0  0  0  0  0  0  0  0  0  0  0  0
    5.7735   -7.5900    9.2916 C   0  0  0  0  0  0  0  0  0  0  0  0
    4.5984   -8.2628    8.9165 C   0  0  0  0  0  0  0  0  0  0  0  0
    3.4851   -8.2794    9.7573 C   0  0  0  0  0  0  0  0  0  0  0  0
    3.5547   -7.6178   10.9827 C   0  0  0  0  0  0  0  0  0  0  0  0
    2.4889   -7.6339   11.7952 F   0  0  0  0  0  0  0  0  0  0  0  0
    4.7052   -6.9445   11.3850 C   0  0  0  0  0  0  0  0  0  0  0  0
    5.8112   -6.9354   10.5310 C   0  0  0  0  0  0  0  0  0  0  0  0
    6.3234   -6.9176    6.0043 C   0  0  0  0  0  0  0  0  0  0  0  0
    5.8932   -8.1155    5.6331 N   0  0  0  0  0  0  0  0  0  0  0  0
    5.4401   -8.1894    4.3782 C   0  0  0  0  0  0  0  0  0  0  0  0
    5.4050   -7.0945    3.4932 C   0  0  0  0  0  0  0  0  0  0  0  0
    5.8594   -5.8406    3.9066 C   0  0  0  0  0  0  0  0  0  0  0  0
    6.3416   -5.7358    5.2183 C   0  0  0  0  0  0  0  0  0  0  0  0
    8.3062    1.2570    5.8127 C   0  0  0  0  0  0  0  0  0  0  0  0
    8.7678    2.4875    6.2716 C   0  0  0  0  0  0  0  0  0  0  0  0
    8.6757    3.5639    5.4386 O   0  0  0  0  0  0  0  0  0  0  0  0
    9.8827    4.2028    5.0482 C   0  0  0  0  0  0  0  0  0  0  0  0
   10.3526    5.0869    9.4217 H   0  0  0  0  0  0  0  0  0  0  0  0
   10.9974    3.4188    9.5459 H   0  0  0  0  0  0  0  0  0  0  0  0
    9.3116    3.7720   10.0547 H   0  0  0  0  0  0  0  0  0  0  0  0
    9.6320    1.5212    9.4344 H   0  0  0  0  0  0  0  0  0  0  0  0
    8.8100   -0.6507    8.5895 H   0  0  0  0  0  0  0  0  0  0  0  0
    7.4715   -1.0663    5.1329 H   0  0  0  0  0  0  0  0  0  0  0  0
    7.6076   -4.8239    8.1647 H   0  0  0  0  0  0  0  0  0  0  0  0
    7.8833   -7.3075    8.9226 H   0  0  0  0  0  0  0  0  0  0  0  0
    7.1198   -8.5512    7.9028 H   0  0  0  0  0  0  0  0  0  0  0  0
    4.5605   -8.7724    7.9505 H   0  0  0  0  0  0  0  0  0  0  0  0
    2.5653   -8.7985    9.4808 H   0  0  0  0  0  0  0  0  0  0  0  0
    4.7227   -6.4410   12.3534 H   0  0  0  0  0  0  0  0  0  0  0  0
    6.7191   -6.4109   10.8425 H   0  0  0  0  0  0  0  0  0  0  0  0
    5.0805   -9.1699    4.0477 H   0  0  0  0  0  0  0  0  0  0  0  0
    5.0169   -7.2387    2.4825 H   0  0  0  0  0  0  0  0  0  0  0  0
    5.8462   -4.9700    3.2499 H   0  0  0  0  0  0  0  0  0  0  0  0
    7.9313    1.2103    4.7875 H   0  0  0  0  0  0  0  0  0  0  0  0
    9.6031    4.9877    4.3314 H   0  0  0  0  0  0  0  0  0  0  0  0
   10.5653    3.4913    4.5480 H   0  0  0  0  0  0  0  0  0  0  0  0
   10.4013    4.6607    5.9044 H   0  0  0  0  0  0  0  0  0  0  0  0
  1  2  1  0
  1 33  1  0
  1 34  1  0
  1 35  1  0
  2  3  1  0
  3  4  2  0
  3 30  1  0
  4  5  1  0
  4 36  1  0
  5  6  2  0
  5 37  1  0
  6  7  1  0
  6 29  1  0
  7  8  1  0
  7 38  1  0
  8  9  2  0
  8 10  1  0
 10 11  2  0
 10 12  1  0
 12 13  2  0
 12 28  1  0
 13 14  1  0
 13 39  1  0
 14 15  1  0
 14 23  1  0
 15 16  1  0
 15 40  1  0
 15 41  1  0
 16 17  2  0
 16 22  1  0
 17 18  1  0
 17 42  1  0
 18 19  2  0
 18 43  1  0
 19 20  1  0
 19 21  1  0
 21 22  2  0
 21 44  1  0
 22 45  1  0
 23 24  1  0
 23 28  2  0
 24 25  2  0
 25 26  1  0
 25 46  1  0
 26 27  2  0
 26 47  1  0
 27 28  1  0
 27 48  1  0
 29 30  2  0
 29 49  1  0
 30 31  1  0
 31 32  1  0
 32 50  1  0
 32 51  1  0
 32 52  1  0
M  END

