
     RDKit          3D

 57 60  0  0  0  0  0  0  0  0999 V2000
   10.9309    0.3270   -0.4782 O   0  0  0  0  0  0  0  0  0  0  0  0
   10.1890    0.0137   -1.3785 C   0  0  0  0  0  0  0  0  0  0  0  0
   10.5091   -0.9444   -2.2352 O   0  0  0  0  0  0  0  0  0  0  0  0
    8.8780    0.7820   -1.5752 C   0  0  0  0  0  0  0  0  0  0  0  0
    8.9057    2.0751   -1.0259 C   0  0  0  0  0  0  0  0  0  0  0  0
    7.8110    2.9341   -1.0961 C   0  0  0  0  0  0  0  0  0  0  0  0
    6.6334    2.5026   -1.7082 C   0  0  0  0  0  0  0  0  0  0  0  0
    6.5679    1.2111   -2.2278 C   0  0  0  0  0  0  0  0  0  0  0  0
    7.6699    0.3345   -2.1735 C   0  0  0  0  0  0  0  0  0  0  0  0
    7.4956   -1.0252   -2.7997 C   0  0  0  0  0  0  0  0  0  0  0  0
    8.3580   -1.5442   -3.5100 O   0  0  0  0  0  0  0  0  0  0  0  0
    6.2930   -1.6221   -2.5478 N   0  0  0  0  0  0  0  0  0  0  0  0
    5.7826   -2.8488   -3.0225 C   0  0  0  0  0  0  0  0  0  0  0  0
    6.4630   -3.6806   -3.9276 C   0  0  0  0  0  0  0  0  0  0  0  0
    5.8761   -4.8806   -4.3332 C   0  0  0  0  0  0  0  0  0  0  0  0
    4.6117   -5.2718   -3.8692 C   0  0  0  0  0  0  0  0  0  0  0  0
    3.9116   -6.8028   -4.4891 S   0  0  0  0  0  0  0  0  0  0  0  0
    3.8381   -7.8667   -2.9526 C   0  0  1  0  0  0  0  0  0  0  0  0
    2.6564   -7.5925   -1.9964 C   0  0  0  0  0  0  0  0  0  0  0  0
    2.7597   -7.9010   -0.8237 O   0  0  0  0  0  0  0  0  0  0  0  0
    1.5434   -7.0410   -2.5730 N   0  0  0  0  0  0  0  0  0  0  0  0
    0.3013   -6.7290   -1.9825 C   0  0  0  0  0  0  0  0  0  0  0  0
    0.0036   -6.9889   -0.6322 C   0  0  0  0  0  0  0  0  0  0  0  0
   -1.2513   -6.6528   -0.1197 C   0  0  0  0  0  0  0  0  0  0  0  0
   -2.2034   -6.0619   -0.9455 C   0  0  0  0  0  0  0  0  0  0  0  0
   -3.4069   -5.7412   -0.4450 F   0  0  0  0  0  0  0  0  0  0  0  0
   -1.9294   -5.7966   -2.2854 C   0  0  0  0  0  0  0  0  0  0  0  0
   -0.6771   -6.1315   -2.7984 C   0  0  0  0  0  0  0  0  0  0  0  0
    3.8838   -9.3194   -3.3915 C   0  0  0  0  0  0  0  0  0  0  0  0
    5.1046  -10.0122   -3.3738 C   0  0  0  0  0  0  0  0  0  0  0  0
    5.1776  -11.3396   -3.7997 C   0  0  0  0  0  0  0  0  0  0  0  0
    4.0290  -11.9951   -4.2544 C   0  0  0  0  0  0  0  0  0  0  0  0
    2.8089  -11.3143   -4.2775 C   0  0  0  0  0  0  0  0  0  0  0  0
    2.7360   -9.9860   -3.8494 C   0  0  0  0  0  0  0  0  0  0  0  0
    3.9303   -4.4278   -2.9771 C   0  0  0  0  0  0  0  0  0  0  0  0
    4.5147   -3.2385   -2.5523 C   0  0  0  0  0  0  0  0  0  0  0  0
    9.7939   -1.1180   -2.8990 H   0  0  0  0  0  0  0  0  0  0  0  0
    9.8267    2.3833   -0.5294 H   0  0  0  0  0  0  0  0  0  0  0  0
    7.8788    3.9390   -0.6724 H   0  0  0  0  0  0  0  0  0  0  0  0
    5.7680    3.1652   -1.7843 H   0  0  0  0  0  0  0  0  0  0  0  0
    5.6482    0.8863   -2.7204 H   0  0  0  0  0  0  0  0  0  0  0  0
    5.6975   -1.1414   -1.8833 H   0  0  0  0  0  0  0  0  0  0  0  0
    7.4445   -3.3924   -4.2946 H   0  0  0  0  0  0  0  0  0  0  0  0
    6.4154   -5.5313   -5.0251 H   0  0  0  0  0  0  0  0  0  0  0  0
    4.7407   -7.6415   -2.3701 H   0  0  0  0  0  0  0  0  0  0  0  0
    1.6580   -6.7855   -3.5526 H   0  0  0  0  0  0  0  0  0  0  0  0
    0.7594   -7.4493    0.0001 H   0  0  0  0  0  0  0  0  0  0  0  0
   -1.4986   -6.8483    0.9257 H   0  0  0  0  0  0  0  0  0  0  0  0
   -2.6946   -5.3342   -2.9117 H   0  0  0  0  0  0  0  0  0  0  0  0
   -0.4563   -5.9287   -3.8503 H   0  0  0  0  0  0  0  0  0  0  0  0
    6.0059   -9.5045   -3.0200 H   0  0  0  0  0  0  0  0  0  0  0  0
    6.1354  -11.8653   -3.7734 H   0  0  0  0  0  0  0  0  0  0  0  0
    4.0847  -13.0347   -4.5865 H   0  0  0  0  0  0  0  0  0  0  0  0
    1.9052  -11.8200   -4.6269 H   0  0  0  0  0  0  0  0  0  0  0  0
    1.7733   -9.4700   -3.8653 H   0  0  0  0  0  0  0  0  0  0  0  0
    2.9380   -4.6948   -2.6105 H   0  0  0  0  0  0  0  0  0  0  0  0
    3.9735   -2.5965   -1.8509 H   0  0  0  0  0  0  0  0  0  0  0  0
  1  2  2  0
  2  3  1  0
  2  4  1  0
  3 37  1  0
  4  5  2  0
  4  9  1  0
  5  6  1  0
  5 38  1  0
  6  7  2  0
  6 39  1  0
  7  8  1  0
  7 40  1  0
  8  9  2  0
  8 41  1  0
  9 10  1  0
 10 11  2  0
 10 12  1  0
 12 13  1  0
 12 42  1  0
 13 14  2  0
 13 36  1  0
 14 15  1  0
 14 43  1  0
 15 16  2  0
 15 44  1  0
 16 17  1  0
 16 35  1  0
 17 18  1  0
 18 19  1  0
 18 29  1  0
 18 45  1  1
 19 20  2  0
 19 21  1  0
 21 22  1  0
 21 46  1  0
 22 23  2  0
 22 28  1  0
 23 24  1  0
 23 47  1  0
 24 25  2  0
 24 48  1  0
 25 26  1  0
 25 27  1  0
 27 28  2  0
 27 49  1  0
 28 50  1  0
 29 30  2  0
 29 34  1  0
 30 31  1  0
 30 51  1  0
 31 32  2  0
 31 52  1  0
 32 33  1  0
 32 53  1  0
 33 34  2  0
 33 54  1  0
 34 55  1  0
 35 36  2  0
 35 56  1  0
 36 57  1  0
M  END

