
     RDKit          3D

 20 21  0  0  0  0  0  0  0  0999 V2000
    1.1682   -0.3723   -0.1181 C   0  0  0  0  0  0  0  0  0  0  0  0
    2.8965    0.0317    0.1607 S   0  0  1  0  0  0  0  0  0  0  0  0
    2.9716    1.3046    0.8621 O   0  0  0  0  0  0  0  0  0  0  0  0
    3.5885   -1.1682    0.6082 O   0  0  0  0  0  0  0  0  0  0  0  0
    3.4816    0.3518   -1.4330 N   0  0  0  0  0  0  0  0  0  0  0  0
    3.4838    1.6170   -2.0218 C   0  0  0  0  0  0  0  0  0  0  0  0
    3.8825    1.5117   -3.3299 C   0  0  0  0  0  0  0  0  0  0  0  0
    4.0626    2.7997   -4.4541 Cl  0  0  0  0  0  0  0  0  0  0  0  0
    4.1418    0.1176   -3.5923 C   0  0  0  0  0  0  0  0  0  0  0  0
    4.5531   -0.5017   -4.7023 N   0  0  0  0  0  0  0  0  0  0  0  0
    4.6954   -1.8092   -4.5820 C   0  0  0  0  0  0  0  0  0  0  0  0
    5.2204   -2.6668   -6.0082 Cl  0  0  0  0  0  0  0  0  0  0  0  0
    4.4927   -2.5641   -3.4967 N   0  0  0  0  0  0  0  0  0  0  0  0
    4.0898   -1.9654   -2.3789 C   0  0  0  0  0  0  0  0  0  0  0  0
    3.8844   -0.5829   -2.3827 C   0  0  0  0  0  0  0  0  0  0  0  0
    0.7528   -0.5955    0.8745 H   0  0  0  0  0  0  0  0  0  0  0  0
    1.1074   -1.2536   -0.7692 H   0  0  0  0  0  0  0  0  0  0  0  0
    0.6688    0.4988   -0.5606 H   0  0  0  0  0  0  0  0  0  0  0  0
    3.2192    2.4948   -1.4376 H   0  0  0  0  0  0  0  0  0  0  0  0
    3.9436   -2.5790   -1.4854 H   0  0  0  0  0  0  0  0  0  0  0  0
  2  1  1  6
  1 16  1  0
  1 17  1  0
  1 18  1  0
  2  3  2  0
  2  4  2  0
  2  5  1  0
  5  6  1  0
  5 15  1  0
  6  7  2  0
  6 19  1  0
  7  8  1  0
  7  9  1  0
  9 10  1  0
  9 15  2  0
 10 11  2  0
 11 12  1  0
 11 13  1  0
 13 14  2  0
 14 15  1  0
 14 20  1  0
M  END

