
     RDKit          3D

 53 55  0  0  0  0  0  0  0  0999 V2000
    1.5738    1.4612    1.4355 C   0  0  0  0  0  0  0  0  0  0  0  0
    1.7310    2.2623    0.1457 C   0  0  0  0  0  0  0  0  0  0  0  0
    2.5328    1.5812   -0.8884 N   0  0  0  0  0  0  0  0  0  0  0  0
    1.9776    0.4658   -1.5915 C   0  0  0  0  0  0  0  0  0  0  0  0
    2.4802   -0.8335   -1.4240 C   0  0  0  0  0  0  0  0  0  0  0  0
    1.8889   -1.9052   -2.0973 C   0  0  0  0  0  0  0  0  0  0  0  0
    0.7786   -1.6990   -2.9206 C   0  0  0  0  0  0  0  0  0  0  0  0
    0.2687   -0.4066   -3.0812 C   0  0  0  0  0  0  0  0  0  0  0  0
    0.8719    0.6716   -2.4314 C   0  0  0  0  0  0  0  0  0  0  0  0
    4.1841    1.9140   -0.9175 S   0  0  1  0  0  0  0  0  0  0  0  0
    4.6393    2.0777    0.4662 O   0  0  0  0  0  0  0  0  0  0  0  0
    4.8302    0.9547   -1.8075 O   0  0  0  0  0  0  0  0  0  0  0  0
    4.3010    3.5672   -1.6688 C   0  0  0  0  0  0  0  0  0  0  0  0
    4.7872    4.5821   -0.8395 C   0  0  0  0  0  0  0  0  0  0  0  0
    4.9673    5.8832   -1.3421 C   0  0  0  0  0  0  0  0  0  0  0  0
    5.4647    6.9449   -0.5752 N   0  0  0  0  0  0  0  0  0  0  0  0
    5.6499    6.9858    0.8067 C   0  0  0  0  0  0  0  0  0  0  0  0
    5.3496    6.0762    1.5584 O   0  0  0  0  0  0  0  0  0  0  0  0
    6.1891    8.1752    1.2469 N   0  0  0  0  0  0  0  0  0  0  0  0
    6.5222    8.3579    2.6508 C   0  0  0  0  0  0  0  0  0  0  0  0
    7.8937    7.8103    3.0567 C   0  0  1  0  0  0  0  0  0  0  0  0
    9.1089    8.4775    2.3910 C   0  0  0  0  0  0  0  0  0  0  0  0
   10.2212    8.1388    3.3832 C   0  0  0  0  0  0  0  0  0  0  0  0
    9.6142    8.1986    4.6647 O   0  0  0  0  0  0  0  0  0  0  0  0
    8.2093    8.0101    4.5533 C   0  0  0  0  0  0  0  0  0  0  0  0
    4.6559    6.1305   -2.6909 C   0  0  0  0  0  0  0  0  0  0  0  0
    4.1754    5.1154   -3.5126 C   0  0  0  0  0  0  0  0  0  0  0  0
    3.9904    3.8227   -3.0143 C   0  0  0  0  0  0  0  0  0  0  0  0
    3.3679    2.6056   -4.0939 Cl  0  0  0  0  0  0  0  0  0  0  0  0
    0.9511    2.0179    2.1544 H   0  0  0  0  0  0  0  0  0  0  0  0
    2.5576    1.2800    1.8917 H   0  0  0  0  0  0  0  0  0  0  0  0
    1.0879    0.4914    1.2444 H   0  0  0  0  0  0  0  0  0  0  0  0
    2.2045    3.2331    0.3564 H   0  0  0  0  0  0  0  0  0  0  0  0
    0.7469    2.4881   -0.2958 H   0  0  0  0  0  0  0  0  0  0  0  0
    3.3417   -0.9970   -0.7763 H   0  0  0  0  0  0  0  0  0  0  0  0
    2.2954   -2.9113   -1.9666 H   0  0  0  0  0  0  0  0  0  0  0  0
    0.3128   -2.5418   -3.4374 H   0  0  0  0  0  0  0  0  0  0  0  0
   -0.5945   -0.2331   -3.7290 H   0  0  0  0  0  0  0  0  0  0  0  0
    0.4957    1.6857   -2.5810 H   0  0  0  0  0  0  0  0  0  0  0  0
    5.0198    4.3570    0.1987 H   0  0  0  0  0  0  0  0  0  0  0  0
    5.5904    7.8133   -1.0812 H   0  0  0  0  0  0  0  0  0  0  0  0
    6.6395    8.7884    0.5777 H   0  0  0  0  0  0  0  0  0  0  0  0
    5.7384    7.8548    3.2354 H   0  0  0  0  0  0  0  0  0  0  0  0
    6.4671    9.4364    2.8786 H   0  0  0  0  0  0  0  0  0  0  0  0
    7.9062    6.7317    2.8265 H   0  0  0  0  0  0  0  0  0  0  0  0
    8.9662    9.5723    2.3401 H   0  0  0  0  0  0  0  0  0  0  0  0
    9.3123    8.1079    1.3741 H   0  0  0  0  0  0  0  0  0  0  0  0
   11.0658    8.8462    3.3592 H   0  0  0  0  0  0  0  0  0  0  0  0
   10.6240    7.1242    3.1856 H   0  0  0  0  0  0  0  0  0  0  0  0
    7.6931    8.9050    4.9550 H   0  0  0  0  0  0  0  0  0  0  0  0
    7.8912    7.1448    5.1614 H   0  0  0  0  0  0  0  0  0  0  0  0
    4.7887    7.1335   -3.1070 H   0  0  0  0  0  0  0  0  0  0  0  0
    3.9359    5.3194   -4.5575 H   0  0  0  0  0  0  0  0  0  0  0  0
  1  2  1  0
  1 30  1  0
  1 31  1  0
  1 32  1  0
  2  3  1  0
  2 33  1  0
  2 34  1  0
  3  4  1  0
 10  3  1  1
  4  5  2  0
  4  9  1  0
  5  6  1  0
  5 35  1  0
  6  7  2  0
  6 36  1  0
  7  8  1  0
  7 37  1  0
  8  9  2  0
  8 38  1  0
  9 39  1  0
 10 11  2  0
 10 12  2  0
 10 13  1  0
 13 14  2  0
 13 28  1  0
 14 15  1  0
 14 40  1  0
 15 16  1  0
 15 26  2  0
 16 17  1  0
 16 41  1  0
 17 18  2  0
 17 19  1  0
 19 20  1  0
 19 42  1  0
 20 21  1  0
 20 43  1  0
 20 44  1  0
 21 22  1  0
 21 25  1  0
 21 45  1  1
 22 23  1  0
 22 46  1  0
 22 47  1  0
 23 24  1  0
 23 48  1  0
 23 49  1  0
 24 25  1  0
 25 50  1  0
 25 51  1  0
 26 27  1  0
 26 52  1  0
 27 28  2  0
 27 53  1  0
 28 29  1  0
M  END

