
     RDKit          3D

 86 94  0  0  0  0  0  0  0  0999 V2000
    1.1868    0.1382   -0.3031 O   0  0  0  0  0  0  0  0  0  0  0  0
    2.3948    0.0656   -0.2336 C   0  0  0  0  0  0  0  0  0  0  0  0
    3.2412   -1.1765   -0.2358 C   0  0  0  0  0  0  0  0  0  0  0  0
    2.8413   -2.5002   -0.3215 C   0  0  0  0  0  0  0  0  0  0  0  0
    3.8168   -3.5246   -0.3146 C   0  0  0  0  0  0  0  0  0  0  0  0
    3.4254   -4.9524   -0.4061 C   0  0  0  0  0  0  0  0  0  0  0  0
    4.2339   -5.8996   -1.0648 C   0  0  0  0  0  0  0  0  0  0  0  0
    3.8644   -7.2384   -1.1590 C   0  0  0  0  0  0  0  0  0  0  0  0
    2.6659   -7.6971   -0.5793 C   0  0  0  0  0  0  0  0  0  0  0  0
    2.2888   -9.0576   -0.6665 N   0  0  0  0  0  0  0  0  0  0  0  0
    3.2698  -10.0809   -0.5628 C   0  0  0  0  0  0  0  0  0  0  0  0
    4.2794  -10.0110    0.4146 C   0  0  0  0  0  0  0  0  0  0  0  0
    5.2422  -11.0172    0.5081 C   0  0  0  0  0  0  0  0  0  0  0  0
    5.2083  -12.1171   -0.3552 C   0  0  0  0  0  0  0  0  0  0  0  0
    4.2007  -12.1954   -1.3221 C   0  0  0  0  0  0  0  0  0  0  0  0
    3.2437  -11.1855   -1.4336 C   0  0  0  0  0  0  0  0  0  0  0  0
    0.9248   -9.4109   -0.8581 C   0  0  0  0  0  0  0  0  0  0  0  0
    0.1296   -8.7202   -1.7907 C   0  0  0  0  0  0  0  0  0  0  0  0
   -1.2102   -9.0680   -1.9703 C   0  0  0  0  0  0  0  0  0  0  0  0
   -1.7766  -10.1179   -1.2403 C   0  0  0  0  0  0  0  0  0  0  0  0
   -0.9869  -10.8135   -0.3191 C   0  0  0  0  0  0  0  0  0  0  0  0
    0.3491  -10.4613   -0.1207 C   0  0  0  0  0  0  0  0  0  0  0  0
    1.8530   -6.7605    0.0872 C   0  0  0  0  0  0  0  0  0  0  0  0
    2.2240   -5.4208    0.1614 C   0  0  0  0  0  0  0  0  0  0  0  0
    5.1723   -3.1444   -0.2180 C   0  0  0  0  0  0  0  0  0  0  0  0
    5.5743   -1.8037   -0.1349 C   0  0  0  0  0  0  0  0  0  0  0  0
    4.6007   -0.8073   -0.1427 C   0  0  0  0  0  0  0  0  0  0  0  0
    4.6852    0.6688   -0.0719 C   0  0  0  0  0  0  0  0  0  0  0  0
    5.7658    1.5425    0.0264 C   0  0  0  0  0  0  0  0  0  0  0  0
    5.5195    2.9221    0.0732 C   0  0  0  0  0  0  0  0  0  0  0  0
    4.2170    3.4617    0.0198 C   0  0  0  0  0  0  0  0  0  0  0  0
    3.9911    4.9280    0.0673 C   0  0  0  0  0  0  0  0  0  0  0  0
    4.9058    5.8353   -0.5020 C   0  0  0  0  0  0  0  0  0  0  0  0
    4.6994    7.2114   -0.4521 C   0  0  0  0  0  0  0  0  0  0  0  0
    3.5510    7.7454    0.1628 C   0  0  0  0  0  0  0  0  0  0  0  0
    3.3330    9.1429    0.2102 N   0  0  0  0  0  0  0  0  0  0  0  0
    3.6775    9.9590   -0.9015 C   0  0  0  0  0  0  0  0  0  0  0  0
    3.3685    9.5531   -2.2126 C   0  0  0  0  0  0  0  0  0  0  0  0
    3.7145   10.3565   -3.3003 C   0  0  0  0  0  0  0  0  0  0  0  0
    4.3567   11.5833   -3.1030 C   0  0  0  0  0  0  0  0  0  0  0  0
    4.6570   11.9952   -1.8006 C   0  0  0  0  0  0  0  0  0  0  0  0
    4.3299   11.1903   -0.7082 C   0  0  0  0  0  0  0  0  0  0  0  0
    2.7656    9.7394    1.3691 C   0  0  0  0  0  0  0  0  0  0  0  0
    3.1961    9.3616    2.6542 C   0  0  0  0  0  0  0  0  0  0  0  0
    2.6314    9.9469    3.7884 C   0  0  0  0  0  0  0  0  0  0  0  0
    1.6432   10.9291    3.6650 C   0  0  0  0  0  0  0  0  0  0  0  0
    1.2191   11.3146    2.3893 C   0  0  0  0  0  0  0  0  0  0  0  0
    1.7663   10.7223    1.2499 C   0  0  0  0  0  0  0  0  0  0  0  0
    2.6256    6.8474    0.7278 C   0  0  0  0  0  0  0  0  0  0  0  0
    2.8481    5.4737    0.6836 C   0  0  0  0  0  0  0  0  0  0  0  0
    3.1313    2.5605   -0.0798 C   0  0  0  0  0  0  0  0  0  0  0  0
    3.3772    1.1977   -0.1226 C   0  0  0  0  0  0  0  0  0  0  0  0
    1.7783   -2.7323   -0.4176 H   0  0  0  0  0  0  0  0  0  0  0  0
    5.1562   -5.5763   -1.5531 H   0  0  0  0  0  0  0  0  0  0  0  0
    4.5035   -7.9394   -1.6986 H   0  0  0  0  0  0  0  0  0  0  0  0
    4.3034   -9.1630    1.1016 H   0  0  0  0  0  0  0  0  0  0  0  0
    6.0187  -10.9462    1.2744 H   0  0  0  0  0  0  0  0  0  0  0  0
    5.9595  -12.9063   -0.2747 H   0  0  0  0  0  0  0  0  0  0  0  0
    4.1645  -13.0461   -2.0078 H   0  0  0  0  0  0  0  0  0  0  0  0
    2.4674  -11.2467   -2.1986 H   0  0  0  0  0  0  0  0  0  0  0  0
    0.5688   -7.9088   -2.3742 H   0  0  0  0  0  0  0  0  0  0  0  0
   -1.8130   -8.5199   -2.6993 H   0  0  0  0  0  0  0  0  0  0  0  0
   -2.8239  -10.3917   -1.3881 H   0  0  0  0  0  0  0  0  0  0  0  0
   -1.4175  -11.6324    0.2633 H   0  0  0  0  0  0  0  0  0  0  0  0
    0.9564  -10.9998    0.6093 H   0  0  0  0  0  0  0  0  0  0  0  0
    0.9265   -7.0916    0.5594 H   0  0  0  0  0  0  0  0  0  0  0  0
    1.5797   -4.7292    0.7092 H   0  0  0  0  0  0  0  0  0  0  0  0
    5.9378   -3.9228   -0.1829 H   0  0  0  0  0  0  0  0  0  0  0  0
    6.6366   -1.5595   -0.0556 H   0  0  0  0  0  0  0  0  0  0  0  0
    6.7929    1.1726    0.0772 H   0  0  0  0  0  0  0  0  0  0  0  0
    6.3687    3.6011    0.1776 H   0  0  0  0  0  0  0  0  0  0  0  0
    5.7969    5.4585   -1.0094 H   0  0  0  0  0  0  0  0  0  0  0  0
    5.4315    7.8845   -0.9016 H   0  0  0  0  0  0  0  0  0  0  0  0
    2.8543    8.6037   -2.3734 H   0  0  0  0  0  0  0  0  0  0  0  0
    3.4659   10.0247   -4.3119 H   0  0  0  0  0  0  0  0  0  0  0  0
    4.6199   12.2127   -3.9563 H   0  0  0  0  0  0  0  0  0  0  0  0
    5.1639   12.9488   -1.6309 H   0  0  0  0  0  0  0  0  0  0  0  0
    4.5786   11.5119    0.3049 H   0  0  0  0  0  0  0  0  0  0  0  0
    3.9769    8.6057    2.7578 H   0  0  0  0  0  0  0  0  0  0  0  0
    2.9784    9.6405    4.7788 H   0  0  0  0  0  0  0  0  0  0  0  0
    1.2079   11.3899    4.5549 H   0  0  0  0  0  0  0  0  0  0  0  0
    0.4431   12.0764    2.2771 H   0  0  0  0  0  0  0  0  0  0  0  0
    1.4212   11.0185    0.2576 H   0  0  0  0  0  0  0  0  0  0  0  0
    1.7266    7.2336    1.2109 H   0  0  0  0  0  0  0  0  0  0  0  0
    2.1169    4.8103    1.1509 H   0  0  0  0  0  0  0  0  0  0  0  0
    2.1020    2.9200   -0.1468 H   0  0  0  0  0  0  0  0  0  0  0  0
  1  2  2  0
  2  3  1  0
  2 52  1  0
  3  4  2  0
  3 27  1  0
  4  5  1  0
  4 53  1  0
  5  6  1  0
  5 25  2  0
  6  7  2  0
  6 24  1  0
  7  8  1  0
  7 54  1  0
  8  9  2  0
  8 55  1  0
  9 10  1  0
  9 23  1  0
 10 11  1  0
 10 17  1  0
 11 12  2  0
 11 16  1  0
 12 13  1  0
 12 56  1  0
 13 14  2  0
 13 57  1  0
 14 15  1  0
 14 58  1  0
 15 16  2  0
 15 59  1  0
 16 60  1  0
 17 18  2  0
 17 22  1  0
 18 19  1  0
 18 61  1  0
 19 20  2  0
 19 62  1  0
 20 21  1  0
 20 63  1  0
 21 22  2  0
 21 64  1  0
 22 65  1  0
 23 24  2  0
 23 66  1  0
 24 67  1  0
 25 26  1  0
 25 68  1  0
 26 27  2  0
 26 69  1  0
 27 28  1  0
 28 29  2  0
 28 52  1  0
 29 30  1  0
 29 70  1  0
 30 31  2  0
 30 71  1  0
 31 32  1  0
 31 51  1  0
 32 33  2  0
 32 50  1  0
 33 34  1  0
 33 72  1  0
 34 35  2  0
 34 73  1  0
 35 36  1  0
 35 49  1  0
 36 37  1  0
 36 43  1  0
 37 38  2  0
 37 42  1  0
 38 39  1  0
 38 74  1  0
 39 40  2  0
 39 75  1  0
 40 41  1  0
 40 76  1  0
 41 42  2  0
 41 77  1  0
 42 78  1  0
 43 44  2  0
 43 48  1  0
 44 45  1  0
 44 79  1  0
 45 46  2  0
 45 80  1  0
 46 47  1  0
 46 81  1  0
 47 48  2  0
 47 82  1  0
 48 83  1  0
 49 50  2  0
 49 84  1  0
 50 85  1  0
 51 52  2  0
 51 86  1  0
M  END

