
     RDKit          3D

 29 29  0  0  0  0  0  0  0  0999 V2000
    1.4099    0.7014    0.5437 C   0  0  0  0  0  0  0  0  0  0  0  0
    2.1628   -0.1904   -0.2497 O   0  0  0  0  0  0  0  0  0  0  0  0
    2.8330    0.2938   -1.3348 C   0  0  0  0  0  0  0  0  0  0  0  0
    2.8527    1.6259   -1.7318 C   0  0  0  0  0  0  0  0  0  0  0  0
    3.5654    1.9951   -2.8868 C   0  0  0  0  0  0  0  0  0  0  0  0
    3.6165    3.7189   -3.3617 S   0  0  1  0  0  0  0  0  0  0  0  0
    3.8475    3.7765   -4.8064 O   0  0  0  0  0  0  0  0  0  0  0  0
    2.4721    4.3826   -2.7304 O   0  0  0  0  0  0  0  0  0  0  0  0
    4.9932    4.3982   -2.6472 N   0  0  0  0  0  0  0  0  0  0  0  0
    4.9581    4.6154   -1.2095 C   0  0  0  0  0  0  0  0  0  0  0  0
    6.2832    4.0347   -3.2128 C   0  0  0  0  0  0  0  0  0  0  0  0
    4.2340    1.0384   -3.6506 C   0  0  0  0  0  0  0  0  0  0  0  0
    4.2121   -0.2979   -3.2457 C   0  0  0  0  0  0  0  0  0  0  0  0
    3.5262   -0.6989   -2.0879 C   0  0  0  0  0  0  0  0  0  0  0  0
    3.5145   -1.9967   -1.6369 N   0  0  0  0  0  0  0  0  0  0  0  0
    0.9559    0.1035    1.3452 H   0  0  0  0  0  0  0  0  0  0  0  0
    0.6099    1.1909   -0.0397 H   0  0  0  0  0  0  0  0  0  0  0  0
    2.0478    1.4819    0.9955 H   0  0  0  0  0  0  0  0  0  0  0  0
    2.2992    2.3905   -1.1886 H   0  0  0  0  0  0  0  0  0  0  0  0
    3.9625    4.9726   -0.9186 H   0  0  0  0  0  0  0  0  0  0  0  0
    5.6914    5.3971   -0.9534 H   0  0  0  0  0  0  0  0  0  0  0  0
    5.2073    3.7053   -0.6260 H   0  0  0  0  0  0  0  0  0  0  0  0
    6.2024    3.9895   -4.3058 H   0  0  0  0  0  0  0  0  0  0  0  0
    6.6664    3.0656   -2.8327 H   0  0  0  0  0  0  0  0  0  0  0  0
    7.0141    4.8178   -2.9543 H   0  0  0  0  0  0  0  0  0  0  0  0
    4.7454    1.3325   -4.5681 H   0  0  0  0  0  0  0  0  0  0  0  0
    4.7300   -1.0544   -3.8415 H   0  0  0  0  0  0  0  0  0  0  0  0
    3.7520   -2.7313   -2.2905 H   0  0  0  0  0  0  0  0  0  0  0  0
    2.8154   -2.2260   -0.9414 H   0  0  0  0  0  0  0  0  0  0  0  0
  1  2  1  0
  1 16  1  0
  1 17  1  0
  1 18  1  0
  2  3  1  0
  3  4  2  0
  3 14  1  0
  4  5  1  0
  4 19  1  0
  5  6  1  0
  5 12  2  0
  6  7  2  0
  6  8  2  0
  6  9  1  1
  9 10  1  0
  9 11  1  0
 10 20  1  0
 10 21  1  0
 10 22  1  0
 11 23  1  0
 11 24  1  0
 11 25  1  0
 12 13  1  0
 12 26  1  0
 13 14  2  0
 13 27  1  0
 14 15  1  0
 15 28  1  0
 15 29  1  0
M  END

