
     RDKit          3D

 32 34  0  0  0  0  0  0  0  0999 V2000
    4.4100   -3.2193   -0.3204 C   0  0  0  0  0  0  0  0  0  0  0  0
    4.6832   -1.7119   -0.5180 C   0  0  2  0  0  0  0  0  0  0  0  0
    3.4096   -1.0363   -1.1114 C   0  0  0  0  0  0  0  0  0  0  0  0
    3.6682   -0.0934   -2.2858 C   0  0  0  0  0  0  0  0  0  0  0  0
    4.5678   -0.7813   -3.3064 C   0  0  2  0  0  0  0  0  0  0  0  0
    4.7510   -0.1004   -4.1610 H   0  0  0  0  0  0  0  0  0  0  0  0
    3.8878   -1.9512   -3.7587 O   0  0  0  0  0  0  0  0  0  0  0  0
    5.9019   -1.1060   -2.6596 C   0  0  0  0  0  0  0  0  0  0  0  0
    7.0836   -0.9729   -3.4323 C   0  0  0  0  0  0  0  0  0  0  0  0
    8.3184   -1.2312   -2.8866 C   0  0  0  0  0  0  0  0  0  0  0  0
    9.8540   -1.0452   -4.0159 Br  0  0  0  0  0  0  0  0  0  0  0  0
    8.4558   -1.6078   -1.5171 C   0  0  0  0  0  0  0  0  0  0  0  0
    9.7168   -1.8497   -0.9038 C   0  0  0  0  0  0  0  0  0  0  0  0
    9.8113   -2.1866    0.4288 C   0  0  0  0  0  0  0  0  0  0  0  0
    8.6401   -2.2924    1.2133 C   0  0  0  0  0  0  0  0  0  0  0  0
    7.4023   -2.0730    0.6467 C   0  0  0  0  0  0  0  0  0  0  0  0
    7.2512   -1.7315   -0.7309 C   0  0  0  0  0  0  0  0  0  0  0  0
    5.9607   -1.5000   -1.3277 C   0  0  0  0  0  0  0  0  0  0  0  0
    5.2574   -3.7460    0.1423 H   0  0  0  0  0  0  0  0  0  0  0  0
    4.2097   -3.6862   -1.2974 H   0  0  0  0  0  0  0  0  0  0  0  0
    3.5231   -3.3689    0.3168 H   0  0  0  0  0  0  0  0  0  0  0  0
    4.8593   -1.2698    0.4766 H   0  0  0  0  0  0  0  0  0  0  0  0
    2.8709   -0.5039   -0.3113 H   0  0  0  0  0  0  0  0  0  0  0  0
    2.7323   -1.8241   -1.4716 H   0  0  0  0  0  0  0  0  0  0  0  0
    4.1597    0.8390   -1.9616 H   0  0  0  0  0  0  0  0  0  0  0  0
    2.7139    0.1865   -2.7607 H   0  0  0  0  0  0  0  0  0  0  0  0
    4.5044   -2.4725   -4.2892 H   0  0  0  0  0  0  0  0  0  0  0  0
    7.0068   -0.6540   -4.4743 H   0  0  0  0  0  0  0  0  0  0  0  0
   10.6173   -1.7573   -1.5118 H   0  0  0  0  0  0  0  0  0  0  0  0
   10.7906   -2.3661    0.8793 H   0  0  0  0  0  0  0  0  0  0  0  0
    8.7148   -2.5478    2.2734 H   0  0  0  0  0  0  0  0  0  0  0  0
    6.5174   -2.1586    1.2763 H   0  0  0  0  0  0  0  0  0  0  0  0
  1  2  1  0
  1 19  1  0
  1 20  1  0
  1 21  1  0
  2  3  1  0
  2 18  1  0
  2 22  1  1
  3  4  1  0
  3 23  1  0
  3 24  1  0
  4  5  1  0
  4 25  1  0
  4 26  1  0
  5  6  1  6
  5  7  1  0
  5  8  1  0
  7 27  1  0
  8  9  1  0
  8 18  2  0
  9 10  2  0
  9 28  1  0
 10 11  1  0
 10 12  1  0
 12 13  1  0
 12 17  2  0
 13 14  2  0
 13 29  1  0
 14 15  1  0
 14 30  1  0
 15 16  2  0
 15 31  1  0
 16 17  1  0
 16 32  1  0
 17 18  1  0
M  END

