
     RDKit          3D

 41 44  0  0  0  0  0  0  0  0999 V2000
    3.5879   -0.2238    1.5018 O   0  0  0  0  0  0  0  0  0  0  0  0
    3.2852    0.8492    1.0441 C   0  0  0  0  0  0  0  0  0  0  0  0
    3.7182    1.2207   -0.3793 C   0  0  0  0  0  0  0  0  0  0  0  0
    3.2714    2.5160   -0.7343 O   0  0  0  0  0  0  0  0  0  0  0  0
    3.5547    3.0268   -1.9631 C   0  0  0  0  0  0  0  0  0  0  0  0
    4.2870    2.3462   -2.9468 C   0  0  0  0  0  0  0  0  0  0  0  0
    4.5205    2.9638   -4.1743 C   0  0  0  0  0  0  0  0  0  0  0  0
    4.0437    4.2584   -4.4669 C   0  0  0  0  0  0  0  0  0  0  0  0
    4.3403    4.8148   -5.7772 C   0  0  0  0  0  0  0  0  0  0  0  0
    4.0274    6.0030   -6.3492 C   0  0  0  0  0  0  0  0  0  0  0  0
    3.1091    7.3722   -5.6983 S   0  0  0  0  0  0  0  0  0  0  0  0
    3.3167    8.3217   -7.2326 C   0  0  0  0  0  0  0  0  0  0  0  0
    2.8803    9.4227   -7.4191 O   0  0  0  0  0  0  0  0  0  0  0  0
    4.0514    7.5602   -8.1218 N   0  0  0  0  0  0  0  0  0  0  0  0
    4.4857    6.2905   -7.7437 C   0  0  0  0  0  0  0  0  0  0  0  0
    5.1325    5.5574   -8.4568 O   0  0  0  0  0  0  0  0  0  0  0  0
    3.3080    4.9209   -3.4550 C   0  0  0  0  0  0  0  0  0  0  0  0
    3.0680    4.3190   -2.2287 C   0  0  0  0  0  0  0  0  0  0  0  0
    2.5562    1.8422    1.6754 N   0  0  0  0  0  0  0  0  0  0  0  0
    2.0209    1.8204    2.9524 C   0  0  0  0  0  0  0  0  0  0  0  0
    2.1000    0.8621    3.8049 N   0  0  0  0  0  0  0  0  0  0  0  0
    1.4487    1.1847    4.9799 C   0  0  0  0  0  0  0  0  0  0  0  0
    1.3509    0.3542    6.1080 C   0  0  0  0  0  0  0  0  0  0  0  0
    0.6611    0.8092    7.2295 C   0  0  0  0  0  0  0  0  0  0  0  0
    0.0651    2.0829    7.2451 C   0  0  0  0  0  0  0  0  0  0  0  0
    0.1485    2.9269    6.1361 C   0  0  0  0  0  0  0  0  0  0  0  0
    0.8408    2.4690    5.0118 C   0  0  0  0  0  0  0  0  0  0  0  0
    1.1210    3.2777    3.4803 S   0  0  0  0  0  0  0  0  0  0  0  0
    3.3068    0.4523   -1.0574 H   0  0  0  0  0  0  0  0  0  0  0  0
    4.8196    1.1499   -0.4152 H   0  0  0  0  0  0  0  0  0  0  0  0
    4.6770    1.3440   -2.7701 H   0  0  0  0  0  0  0  0  0  0  0  0
    5.0922    2.4256   -4.9346 H   0  0  0  0  0  0  0  0  0  0  0  0
    4.9249    4.1690   -6.4421 H   0  0  0  0  0  0  0  0  0  0  0  0
    4.2705    7.9299   -9.0432 H   0  0  0  0  0  0  0  0  0  0  0  0
    2.9142    5.9238   -3.6229 H   0  0  0  0  0  0  0  0  0  0  0  0
    2.4997    4.8369   -1.4536 H   0  0  0  0  0  0  0  0  0  0  0  0
    2.4062    2.6785    1.1185 H   0  0  0  0  0  0  0  0  0  0  0  0
    1.8187   -0.6315    6.0806 H   0  0  0  0  0  0  0  0  0  0  0  0
    0.5814    0.1678    8.1106 H   0  0  0  0  0  0  0  0  0  0  0  0
   -0.4712    2.4196    8.1355 H   0  0  0  0  0  0  0  0  0  0  0  0
   -0.3153    3.9155    6.1511 H   0  0  0  0  0  0  0  0  0  0  0  0
  1  2  2  0
  2  3  1  0
  2 19  1  0
  3  4  1  0
  3 29  1  0
  3 30  1  0
  4  5  1  0
  5  6  2  0
  5 18  1  0
  6  7  1  0
  6 31  1  0
  7  8  2  0
  7 32  1  0
  8  9  1  0
  8 17  1  0
  9 10  2  0
  9 33  1  0
 10 11  1  0
 10 15  1  0
 11 12  2  0
 12 13  1  0
 12 14  1  0
 14 15  1  0
 14 34  1  0
 15 16  2  0
 17 18  2  0
 17 35  1  0
 18 36  1  0
 19 20  1  0
 19 37  1  0
 20 21  2  0
 20 28  1  0
 21 22  1  0
 22 23  2  0
 22 27  1  0
 23 24  1  0
 23 38  1  0
 24 25  2  0
 24 39  1  0
 25 26  1  0
 25 40  1  0
 26 27  2  0
 26 41  1  0
 27 28  1  0
M  CHG  2  11   1  13  -1
M  END

