
     RDKit          3D

 51 54  0  0  0  0  0  0  0  0999 V2000
    7.0742   -0.6765    2.5529 C   0  0  0  0  0  0  0  0  0  0  0  0
    5.8278   -0.5749    3.2582 O   0  0  0  0  0  0  0  0  0  0  0  0
    4.8885    0.2914    2.7374 C   0  0  0  0  0  0  0  0  0  0  0  0
    4.9686    1.6621    3.0083 C   0  0  0  0  0  0  0  0  0  0  0  0
    6.2859    2.2769    3.9773 Cl  0  0  0  0  0  0  0  0  0  0  0  0
    3.9950    2.5457    2.5363 C   0  0  0  0  0  0  0  0  0  0  0  0
    2.9089    2.0707    1.7943 C   0  0  0  0  0  0  0  0  0  0  0  0
    1.8362    3.0030    1.2879 C   0  0  0  0  0  0  0  0  0  0  0  0
    2.8242    0.6962    1.5333 C   0  0  0  0  0  0  0  0  0  0  0  0
    3.7997   -0.2116    1.9752 C   0  0  0  0  0  0  0  0  0  0  0  0
    3.6714   -1.6717    1.7171 C   0  0  0  0  0  0  0  0  0  0  0  0
    4.2656   -2.4936    2.5938 O   0  0  0  0  0  0  0  0  0  0  0  0
    3.0148   -2.2973    0.6804 C   0  0  0  0  0  0  0  0  0  0  0  0
    2.3985   -1.7901   -0.5389 C   0  0  0  0  0  0  0  0  0  0  0  0
    2.0880   -0.6705   -0.9004 O   0  0  0  0  0  0  0  0  0  0  0  0
    2.1809   -3.0100   -1.4547 C   0  0  0  0  0  0  0  0  0  0  0  0
    1.7405   -2.9461   -2.5810 O   0  0  0  0  0  0  0  0  0  0  0  0
    2.5858   -4.1335   -0.7546 N   0  0  0  0  0  0  0  0  0  0  0  0
    2.6380   -5.4528   -1.2665 C   0  0  0  0  0  0  0  0  0  0  0  0
    2.0201   -5.7894   -2.4891 C   0  0  0  0  0  0  0  0  0  0  0  0
    2.0931   -7.0904   -2.9842 C   0  0  0  0  0  0  0  0  0  0  0  0
    2.7783   -8.0773   -2.2719 C   0  0  0  0  0  0  0  0  0  0  0  0
    2.8638   -9.7094   -2.8964 Cl  0  0  0  0  0  0  0  0  0  0  0  0
    3.3944   -7.7622   -1.0601 C   0  0  0  0  0  0  0  0  0  0  0  0
    3.3256   -6.4608   -0.5623 C   0  0  0  0  0  0  0  0  0  0  0  0
    3.0215   -3.8208    0.6203 C   0  0  2  0  0  0  0  0  0  0  0  0
    2.1102   -4.4506    1.6742 C   0  0  0  0  0  0  0  0  0  0  0  0
    0.7278   -4.2125    1.6843 C   0  0  0  0  0  0  0  0  0  0  0  0
   -0.0984   -4.7672    2.6628 C   0  0  0  0  0  0  0  0  0  0  0  0
    0.4511   -5.5775    3.6626 C   0  0  0  0  0  0  0  0  0  0  0  0
    1.8227   -5.8350    3.6743 C   0  0  0  0  0  0  0  0  0  0  0  0
    2.6224   -5.2708    2.6832 C   0  0  0  0  0  0  0  0  0  0  0  0
    3.9416   -5.5529    2.6925 F   0  0  0  0  0  0  0  0  0  0  0  0
    7.6817   -1.4095    3.0995 H   0  0  0  0  0  0  0  0  0  0  0  0
    7.5909    0.2941    2.5452 H   0  0  0  0  0  0  0  0  0  0  0  0
    6.9119   -1.0235    1.5191 H   0  0  0  0  0  0  0  0  0  0  0  0
    4.0931    3.6081    2.7675 H   0  0  0  0  0  0  0  0  0  0  0  0
    2.1011    4.0570    1.4550 H   0  0  0  0  0  0  0  0  0  0  0  0
    0.8754    2.8121    1.7947 H   0  0  0  0  0  0  0  0  0  0  0  0
    1.6661    2.8553    0.2098 H   0  0  0  0  0  0  0  0  0  0  0  0
    1.9897    0.3237    0.9450 H   0  0  0  0  0  0  0  0  0  0  0  0
    4.8748   -1.9725    3.1641 H   0  0  0  0  0  0  0  0  0  0  0  0
    1.4960   -5.0213   -3.0515 H   0  0  0  0  0  0  0  0  0  0  0  0
    1.6123   -7.3397   -3.9317 H   0  0  0  0  0  0  0  0  0  0  0  0
    3.9297   -8.5331   -0.5035 H   0  0  0  0  0  0  0  0  0  0  0  0
    3.8182   -6.2520    0.3855 H   0  0  0  0  0  0  0  0  0  0  0  0
    4.0432   -4.1909    0.7818 H   0  0  0  0  0  0  0  0  0  0  0  0
    0.2923   -3.5804    0.9058 H   0  0  0  0  0  0  0  0  0  0  0  0
   -1.1721   -4.5675    2.6455 H   0  0  0  0  0  0  0  0  0  0  0  0
   -0.1887   -6.0145    4.4330 H   0  0  0  0  0  0  0  0  0  0  0  0
    2.2871   -6.4689    4.4321 H   0  0  0  0  0  0  0  0  0  0  0  0
  1  2  1  0
  1 34  1  0
  1 35  1  0
  1 36  1  0
  2  3  1  0
  3  4  2  0
  3 10  1  0
  4  5  1  0
  4  6  1  0
  6  7  2  0
  6 37  1  0
  7  8  1  0
  7  9  1  0
  8 38  1  0
  8 39  1  0
  8 40  1  0
  9 10  2  0
  9 41  1  0
 10 11  1  0
 11 12  1  0
 11 13  2  0
 12 42  1  0
 13 14  1  0
 13 26  1  0
 14 15  2  0
 14 16  1  0
 16 17  2  0
 16 18  1  0
 18 19  1  0
 18 26  1  0
 19 20  2  0
 19 25  1  0
 20 21  1  0
 20 43  1  0
 21 22  2  0
 21 44  1  0
 22 23  1  0
 22 24  1  0
 24 25  2  0
 24 45  1  0
 25 46  1  0
 26 27  1  0
 26 47  1  1
 27 28  2  0
 27 32  1  0
 28 29  1  0
 28 48  1  0
 29 30  2  0
 29 49  1  0
 30 31  1  0
 30 50  1  0
 31 32  2  0
 31 51  1  0
 32 33  1  0
M  END

