
     RDKit          3D

 41 43  0  0  0  0  0  0  0  0999 V2000
    2.7407    0.7523   -0.4264 C   0  0  0  0  0  0  0  0  0  0  0  0
    2.9126   -0.6477   -0.4676 O   0  0  0  0  0  0  0  0  0  0  0  0
    3.5519   -1.2820    0.5443 C   0  0  0  0  0  0  0  0  0  0  0  0
    4.0713   -0.6281    1.6705 C   0  0  0  0  0  0  0  0  0  0  0  0
    4.7295   -1.3254    2.6948 C   0  0  0  0  0  0  0  0  0  0  0  0
    5.2653   -0.5630    3.8821 C   0  0  0  0  0  0  0  0  0  0  0  0
    4.8470   -2.7207    2.5458 C   0  0  0  0  0  0  0  0  0  0  0  0
    5.6932   -3.7497    3.7546 S   0  0  1  0  0  0  0  0  0  0  0  0
    5.6901   -5.1173    3.2347 O   0  0  0  0  0  0  0  0  0  0  0  0
    6.9428   -3.1047    4.1654 O   0  0  0  0  0  0  0  0  0  0  0  0
    4.7643   -3.7301    5.1711 N   0  0  0  0  0  0  0  0  0  0  0  0
    3.3975   -4.0892    5.2767 C   0  0  0  0  0  0  0  0  0  0  0  0
    2.9182   -5.2798    4.6712 C   0  0  0  0  0  0  0  0  0  0  0  0
    1.5865   -5.6535    4.7946 C   0  0  0  0  0  0  0  0  0  0  0  0
    0.7002   -4.8619    5.5496 C   0  0  0  0  0  0  0  0  0  0  0  0
   -0.6937   -4.9485    5.8969 C   0  0  0  0  0  0  0  0  0  0  0  0
   -0.9792   -3.8587    6.6818 C   0  0  0  0  0  0  0  0  0  0  0  0
    0.1624   -3.0937    6.8447 N   0  0  0  0  0  0  0  0  0  0  0  0
    0.2195   -2.2399    7.3825 H   0  0  0  0  0  0  0  0  0  0  0  0
    1.2063   -3.6803    6.1647 C   0  0  0  0  0  0  0  0  0  0  0  0
    2.5398   -3.2747    6.0230 C   0  0  0  0  0  0  0  0  0  0  0  0
    4.3299   -3.3756    1.4180 C   0  0  0  0  0  0  0  0  0  0  0  0
    3.6767   -2.6829    0.4022 C   0  0  0  0  0  0  0  0  0  0  0  0
    3.1184   -3.3711   -0.8141 C   0  0  0  0  0  0  0  0  0  0  0  0
    2.2043    1.0275   -1.3443 H   0  0  0  0  0  0  0  0  0  0  0  0
    3.7087    1.2836   -0.4045 H   0  0  0  0  0  0  0  0  0  0  0  0
    2.1411    1.0662    0.4465 H   0  0  0  0  0  0  0  0  0  0  0  0
    3.9743    0.4534    1.7678 H   0  0  0  0  0  0  0  0  0  0  0  0
    5.1534    0.5202    3.7325 H   0  0  0  0  0  0  0  0  0  0  0  0
    6.3242   -0.7962    4.0590 H   0  0  0  0  0  0  0  0  0  0  0  0
    4.7179   -0.8265    4.8031 H   0  0  0  0  0  0  0  0  0  0  0  0
    5.0990   -3.0030    5.7964 H   0  0  0  0  0  0  0  0  0  0  0  0
    3.6213   -5.9015    4.1181 H   0  0  0  0  0  0  0  0  0  0  0  0
    1.2365   -6.5734    4.3191 H   0  0  0  0  0  0  0  0  0  0  0  0
   -1.3956   -5.7253    5.6010 H   0  0  0  0  0  0  0  0  0  0  0  0
   -1.9165   -3.5581    7.1464 H   0  0  0  0  0  0  0  0  0  0  0  0
    2.9062   -2.3543    6.4859 H   0  0  0  0  0  0  0  0  0  0  0  0
    4.4566   -4.4564    1.3425 H   0  0  0  0  0  0  0  0  0  0  0  0
    3.3014   -4.4541   -0.7735 H   0  0  0  0  0  0  0  0  0  0  0  0
    3.5697   -2.9744   -1.7383 H   0  0  0  0  0  0  0  0  0  0  0  0
    2.0325   -3.2031   -0.9026 H   0  0  0  0  0  0  0  0  0  0  0  0
  1  2  1  0
  1 25  1  0
  1 26  1  0
  1 27  1  0
  2  3  1  0
  3  4  2  0
  3 23  1  0
  4  5  1  0
  4 28  1  0
  5  6  1  0
  5  7  2  0
  6 29  1  0
  6 30  1  0
  6 31  1  0
  7  8  1  0
  7 22  1  0
  8  9  2  0
  8 10  2  0
  8 11  1  1
 11 12  1  0
 11 32  1  0
 12 13  2  0
 12 21  1  0
 13 14  1  0
 13 33  1  0
 14 15  2  0
 14 34  1  0
 15 16  1  0
 15 20  1  0
 16 17  2  0
 16 35  1  0
 17 18  1  0
 17 36  1  0
 18 19  1  0
 18 20  1  0
 20 21  2  0
 21 37  1  0
 22 23  2  0
 22 38  1  0
 23 24  1  0
 24 39  1  0
 24 40  1  0
 24 41  1  0
M  END

