
     RDKit          3D

 31 34  0  0  0  0  0  0  0  0999 V2000
    1.1039    0.1302    0.1816 C   0  0  0  0  0  0  0  0  0  0  0  0
    2.5981    0.2341    0.0412 C   0  0  0  0  0  0  0  0  0  0  0  0
    3.2782    1.3859   -0.2790 C   0  0  0  0  0  0  0  0  0  0  0  0
    4.9911    1.1481   -0.3578 S   0  0  0  0  0  0  0  0  0  0  0  0
    4.8260   -0.5430    0.0564 C   0  0  0  0  0  0  0  0  0  0  0  0
    5.9332   -1.4927    0.1362 C   0  0  0  0  0  0  0  0  0  0  0  0
    5.6327   -2.8424    0.1622 N   0  0  0  0  0  0  0  0  0  0  0  0
    6.7883   -3.4462    0.1727 C   0  0  0  0  0  0  0  0  0  0  0  0
    7.3367   -5.1089    0.2432 S   0  0  0  0  0  0  0  0  0  0  0  0
    9.0029   -4.5418    0.2571 C   0  0  0  0  0  0  0  0  0  0  0  0
    9.1032   -3.1905    0.2074 C   0  0  0  0  0  0  0  0  0  0  0  0
    7.8588   -2.5763    0.1463 N   0  0  0  0  0  0  0  0  0  0  0  0
    7.3227   -1.2873    0.1403 C   0  0  0  0  0  0  0  0  0  0  0  0
    8.1815   -0.0946    0.1509 C   0  0  0  0  0  0  0  0  0  0  0  0
    9.2602    0.0435   -0.7437 C   0  0  0  0  0  0  0  0  0  0  0  0
   10.0671    1.1816   -0.6720 C   0  0  0  0  0  0  0  0  0  0  0  0
    9.8764    2.1713    0.2036 N   0  0  0  0  0  0  0  0  0  0  0  0
    8.8517    2.0466    1.0519 C   0  0  0  0  0  0  0  0  0  0  0  0
    7.9894    0.9485    1.0745 C   0  0  0  0  0  0  0  0  0  0  0  0
    3.4946   -0.8649    0.2257 C   0  0  0  0  0  0  0  0  0  0  0  0
    0.6126    1.0955   -0.0093 H   0  0  0  0  0  0  0  0  0  0  0  0
    0.8193   -0.1993    1.1950 H   0  0  0  0  0  0  0  0  0  0  0  0
    0.6870   -0.6068   -0.5251 H   0  0  0  0  0  0  0  0  0  0  0  0
    2.8624    2.3744   -0.4719 H   0  0  0  0  0  0  0  0  0  0  0  0
    9.8244   -5.2537    0.3002 H   0  0  0  0  0  0  0  0  0  0  0  0
   10.0146   -2.5965    0.2135 H   0  0  0  0  0  0  0  0  0  0  0  0
    9.4555   -0.7145   -1.5057 H   0  0  0  0  0  0  0  0  0  0  0  0
   10.9069    1.2978   -1.3678 H   0  0  0  0  0  0  0  0  0  0  0  0
    8.7081    2.8639    1.7687 H   0  0  0  0  0  0  0  0  0  0  0  0
    7.1828    0.8990    1.8076 H   0  0  0  0  0  0  0  0  0  0  0  0
    3.1841   -1.8813    0.4694 H   0  0  0  0  0  0  0  0  0  0  0  0
  1  2  1  0
  1 21  1  0
  1 22  1  0
  1 23  1  0
  2  3  2  0
  2 20  1  0
  3  4  1  0
  3 24  1  0
  4  5  1  0
  5  6  1  0
  5 20  2  0
  6  7  1  0
  6 13  2  0
  7  8  2  0
  8  9  1  0
  8 12  1  0
  9 10  1  0
 10 11  2  0
 10 25  1  0
 11 12  1  0
 11 26  1  0
 12 13  1  0
 13 14  1  0
 14 15  2  0
 14 19  1  0
 15 16  1  0
 15 27  1  0
 16 17  2  0
 16 28  1  0
 17 18  1  0
 18 19  2  0
 18 29  1  0
 19 30  1  0
 20 31  1  0
M  END

