
     RDKit          3D

 84 94  0  0  0  0  0  0  0  0999 V2000
    4.4483   -0.0985    0.8533 C   0  0  0  0  0  0  0  0  0  0  0  0
    5.0144   -0.2498   -0.5361 C   0  0  0  0  0  0  0  0  0  0  0  0
    6.3978   -0.2875   -0.7487 C   0  0  0  0  0  0  0  0  0  0  0  0
    6.9513   -0.4588   -2.0276 C   0  0  0  0  0  0  0  0  0  0  0  0
    8.4266   -0.4989   -2.2097 C   0  0  0  0  0  0  0  0  0  0  0  0
    9.2015   -0.3548   -1.1278 N   0  0  0  0  0  0  0  0  0  0  0  0
   10.5245   -0.3990   -1.3351 C   0  0  0  0  0  0  0  0  0  0  0  0
   11.4247   -0.2447   -0.1630 C   0  0  0  0  0  0  0  0  0  0  0  0
   10.8922   -0.0512    1.1240 C   0  0  0  0  0  0  0  0  0  0  0  0
   11.7390    0.0934    2.2230 C   0  0  0  0  0  0  0  0  0  0  0  0
   13.1268    0.0464    2.0517 C   0  0  0  0  0  0  0  0  0  0  0  0
   13.6647   -0.1459    0.7744 C   0  0  0  0  0  0  0  0  0  0  0  0
   12.8205   -0.2904   -0.3266 C   0  0  0  0  0  0  0  0  0  0  0  0
   11.0799   -0.5744   -2.5409 N   0  0  0  0  0  0  0  0  0  0  0  0
   10.2364   -0.7094   -3.5723 C   0  0  0  0  0  0  0  0  0  0  0  0
   10.8105   -0.9048   -4.9286 C   0  0  0  0  0  0  0  0  0  0  0  0
   12.2040   -0.9462   -5.1128 C   0  0  0  0  0  0  0  0  0  0  0  0
   12.7417   -1.1299   -6.3867 C   0  0  0  0  0  0  0  0  0  0  0  0
   11.8961   -1.2744   -7.4921 C   0  0  0  0  0  0  0  0  0  0  0  0
   10.5084   -1.2343   -7.3174 C   0  0  0  0  0  0  0  0  0  0  0  0
    9.9677   -1.0509   -6.0447 C   0  0  0  0  0  0  0  0  0  0  0  0
    8.9027   -0.6780   -3.4478 N   0  0  0  0  0  0  0  0  0  0  0  0
    6.0930   -0.5977   -3.1300 C   0  0  0  0  0  0  0  0  0  0  0  0
    4.7143   -0.5533   -2.9438 C   0  0  0  0  0  0  0  0  0  0  0  0
    4.1716   -0.3774   -1.6629 C   0  0  0  0  0  0  0  0  0  0  0  0
    2.7553   -0.3402   -1.5090 N   0  0  0  0  0  0  0  0  0  0  0  0
    1.8972   -1.4371   -1.6096 C   0  0  0  0  0  0  0  0  0  0  0  0
    2.2021   -2.7823   -1.8505 C   0  0  0  0  0  0  0  0  0  0  0  0
    1.1434   -3.6908   -1.8892 C   0  0  0  0  0  0  0  0  0  0  0  0
   -0.1871   -3.2747   -1.6902 C   0  0  0  0  0  0  0  0  0  0  0  0
   -0.4845   -1.9346   -1.4455 C   0  0  0  0  0  0  0  0  0  0  0  0
    0.5599   -0.9985   -1.4022 C   0  0  0  0  0  0  0  0  0  0  0  0
    0.6211    0.4318   -1.1757 C   0  0  0  0  0  0  0  0  0  0  0  0
   -0.3507    1.4199   -0.9306 C   0  0  0  0  0  0  0  0  0  0  0  0
    0.0616    2.7361   -0.7762 C   0  0  0  0  0  0  0  0  0  0  0  0
    1.4329    3.0864   -0.8696 C   0  0  0  0  0  0  0  0  0  0  0  0
    2.4127    2.1310   -1.1114 C   0  0  0  0  0  0  0  0  0  0  0  0
    1.9908    0.7987   -1.2543 C   0  0  0  0  0  0  0  0  0  0  0  0
    1.6712    4.5862   -0.6808 C   0  0  2  0  0  0  0  0  0  0  0  0
    1.0614    4.9408    0.6763 C   0  0  0  0  0  0  0  0  0  0  0  0
    1.7102    5.5396    1.7529 C   0  0  0  0  0  0  0  0  0  0  0  0
    0.9951    5.7955    2.9332 C   0  0  0  0  0  0  0  0  0  0  0  0
   -0.3553    5.4524    3.0268 C   0  0  0  0  0  0  0  0  0  0  0  0
   -1.0096    4.8489    1.9416 C   0  0  0  0  0  0  0  0  0  0  0  0
   -0.3008    4.5946    0.7705 C   0  0  0  0  0  0  0  0  0  0  0  0
   -0.8367    3.9462   -0.5066 C   0  0  1  0  0  0  0  0  0  0  0  0
   -0.5560    4.9402   -1.6345 C   0  0  0  0  0  0  0  0  0  0  0  0
   -1.4827    5.4892   -2.5167 C   0  0  0  0  0  0  0  0  0  0  0  0
   -1.0479    6.3896   -3.5016 C   0  0  0  0  0  0  0  0  0  0  0  0
    0.3025    6.7324   -3.5963 C   0  0  0  0  0  0  0  0  0  0  0  0
    1.2371    6.1795   -2.7072 C   0  0  0  0  0  0  0  0  0  0  0  0
    0.8060    5.2864   -1.7300 C   0  0  0  0  0  0  0  0  0  0  0  0
    5.2365   -0.2104    1.6112 H   0  0  0  0  0  0  0  0  0  0  0  0
    3.6673   -0.8495    1.0500 H   0  0  0  0  0  0  0  0  0  0  0  0
    3.9779    0.8883    0.9966 H   0  0  0  0  0  0  0  0  0  0  0  0
    7.0770   -0.1950    0.0996 H   0  0  0  0  0  0  0  0  0  0  0  0
    9.8093   -0.0166    1.2443 H   0  0  0  0  0  0  0  0  0  0  0  0
   11.3154    0.2434    3.2193 H   0  0  0  0  0  0  0  0  0  0  0  0
   13.7894    0.1596    2.9138 H   0  0  0  0  0  0  0  0  0  0  0  0
   14.7482   -0.1832    0.6369 H   0  0  0  0  0  0  0  0  0  0  0  0
   13.2269   -0.4407   -1.3271 H   0  0  0  0  0  0  0  0  0  0  0  0
   12.8518   -0.8322   -4.2433 H   0  0  0  0  0  0  0  0  0  0  0  0
   13.8260   -1.1607   -6.5195 H   0  0  0  0  0  0  0  0  0  0  0  0
   12.3187   -1.4183   -8.4900 H   0  0  0  0  0  0  0  0  0  0  0  0
    9.8450   -1.3467   -8.1785 H   0  0  0  0  0  0  0  0  0  0  0  0
    8.8883   -1.0180   -5.8952 H   0  0  0  0  0  0  0  0  0  0  0  0
    6.5200   -0.7311   -4.1238 H   0  0  0  0  0  0  0  0  0  0  0  0
    4.0356   -0.6482   -3.7940 H   0  0  0  0  0  0  0  0  0  0  0  0
    3.2322   -3.1091   -2.0038 H   0  0  0  0  0  0  0  0  0  0  0  0
    1.3538   -4.7468   -2.0774 H   0  0  0  0  0  0  0  0  0  0  0  0
   -0.9928   -4.0119   -1.7270 H   0  0  0  0  0  0  0  0  0  0  0  0
   -1.5186   -1.6170   -1.2886 H   0  0  0  0  0  0  0  0  0  0  0  0
   -1.4097    1.1551   -0.8668 H   0  0  0  0  0  0  0  0  0  0  0  0
    3.4665    2.4053   -1.1958 H   0  0  0  0  0  0  0  0  0  0  0  0
    2.7320    4.8591   -0.7544 H   0  0  0  0  0  0  0  0  0  0  0  0
    2.7676    5.8094    1.6801 H   0  0  0  0  0  0  0  0  0  0  0  0
    1.4988    6.2661    3.7815 H   0  0  0  0  0  0  0  0  0  0  0  0
   -0.9071    5.6544    3.9485 H   0  0  0  0  0  0  0  0  0  0  0  0
   -2.0672    4.5807    2.0161 H   0  0  0  0  0  0  0  0  0  0  0  0
   -1.8984    3.6766   -0.4328 H   0  0  0  0  0  0  0  0  0  0  0  0
   -2.5405    5.2213   -2.4437 H   0  0  0  0  0  0  0  0  0  0  0  0
   -1.7711    6.8235   -4.1970 H   0  0  0  0  0  0  0  0  0  0  0  0
    0.6348    7.4343   -4.3655 H   0  0  0  0  0  0  0  0  0  0  0  0
    2.2946    6.4484   -2.7820 H   0  0  0  0  0  0  0  0  0  0  0  0
  1  2  1  0
  1 53  1  0
  1 54  1  0
  1 55  1  0
  2  3  2  0
  2 25  1  0
  3  4  1  0
  3 56  1  0
  4  5  1  0
  4 23  2  0
  5  6  2  0
  5 22  1  0
  6  7  1  0
  7  8  1  0
  7 14  2  0
  8  9  2  0
  8 13  1  0
  9 10  1  0
  9 57  1  0
 10 11  2  0
 10 58  1  0
 11 12  1  0
 11 59  1  0
 12 13  2  0
 12 60  1  0
 13 61  1  0
 14 15  1  0
 15 16  1  0
 15 22  2  0
 16 17  2  0
 16 21  1  0
 17 18  1  0
 17 62  1  0
 18 19  2  0
 18 63  1  0
 19 20  1  0
 19 64  1  0
 20 21  2  0
 20 65  1  0
 21 66  1  0
 23 24  1  0
 23 67  1  0
 24 25  2  0
 24 68  1  0
 25 26  1  0
 26 27  1  0
 26 38  1  0
 27 28  2  0
 27 32  1  0
 28 29  1  0
 28 69  1  0
 29 30  2  0
 29 70  1  0
 30 31  1  0
 30 71  1  0
 31 32  2  0
 31 72  1  0
 32 33  1  0
 33 34  1  0
 33 38  2  0
 34 35  2  0
 34 73  1  0
 35 36  1  0
 35 46  1  0
 36 37  2  0
 36 39  1  0
 37 38  1  0
 37 74  1  0
 39 40  1  0
 39 52  1  0
 39 75  1  1
 40 41  1  0
 40 45  2  0
 41 42  2  0
 41 76  1  0
 42 43  1  0
 42 77  1  0
 43 44  2  0
 43 78  1  0
 44 45  1  0
 44 79  1  0
 45 46  1  0
 46 47  1  0
 46 80  1  1
 47 48  2  0
 47 52  1  0
 48 49  1  0
 48 81  1  0
 49 50  2  0
 49 82  1  0
 50 51  1  0
 50 83  1  0
 51 52  2  0
 51 84  1  0
M  END

