
     RDKit          3D

 33 35  0  0  0  0  0  0  0  0999 V2000
    0.9809    0.0302    0.5264 C   0  0  0  0  0  0  0  0  0  0  0  0
    2.4382   -0.0071    0.1374 C   0  0  0  0  0  0  0  0  0  0  0  0
    3.4267    0.5735    0.9474 C   0  0  0  0  0  0  0  0  0  0  0  0
    4.7744    0.4993    0.5972 C   0  0  0  0  0  0  0  0  0  0  0  0
    5.1825   -0.1416   -0.5813 C   0  0  0  0  0  0  0  0  0  0  0  0
    6.5568   -0.1972   -0.9235 N   0  0  0  0  0  0  0  0  0  0  0  0
    7.3569    0.8695   -1.3277 C   0  0  0  0  0  0  0  0  0  0  0  0
    6.8426    2.1406   -1.4190 N   0  0  0  0  0  0  0  0  0  0  0  0
    8.6043    0.5436   -1.5383 N   0  0  0  0  0  0  0  0  0  0  0  0
    8.6777   -0.8126   -1.2591 C   0  0  0  0  0  0  0  0  0  0  0  0
    9.7749   -1.6823   -1.3050 C   0  0  0  0  0  0  0  0  0  0  0  0
    9.5972   -3.0318   -0.9727 C   0  0  0  0  0  0  0  0  0  0  0  0
   10.7564   -4.0011   -1.0284 C   0  0  0  0  0  0  0  0  0  0  0  0
    8.3156   -3.4922   -0.5933 C   0  0  0  0  0  0  0  0  0  0  0  0
    7.2043   -2.6455   -0.5401 C   0  0  0  0  0  0  0  0  0  0  0  0
    7.4087   -1.3103   -0.8786 C   0  0  0  0  0  0  0  0  0  0  0  0
    4.1893   -0.7085   -1.4048 C   0  0  0  0  0  0  0  0  0  0  0  0
    4.6307   -1.4754   -2.9077 Cl  0  0  0  0  0  0  0  0  0  0  0  0
    2.8415   -0.6468   -1.0440 C   0  0  0  0  0  0  0  0  0  0  0  0
    0.7815    0.8159    1.2697 H   0  0  0  0  0  0  0  0  0  0  0  0
    0.6673   -0.9312    0.9689 H   0  0  0  0  0  0  0  0  0  0  0  0
    0.3342    0.2105   -0.3464 H   0  0  0  0  0  0  0  0  0  0  0  0
    3.1396    1.0828    1.8708 H   0  0  0  0  0  0  0  0  0  0  0  0
    5.5400    0.9438    1.2361 H   0  0  0  0  0  0  0  0  0  0  0  0
    5.8717    2.2224   -1.7022 H   0  0  0  0  0  0  0  0  0  0  0  0
    7.4672    2.7841   -1.8931 H   0  0  0  0  0  0  0  0  0  0  0  0
   10.7554   -1.2981   -1.5965 H   0  0  0  0  0  0  0  0  0  0  0  0
   11.7110   -3.4793   -1.1927 H   0  0  0  0  0  0  0  0  0  0  0  0
   10.6327   -4.7313   -1.8472 H   0  0  0  0  0  0  0  0  0  0  0  0
   10.8457   -4.5801   -0.0942 H   0  0  0  0  0  0  0  0  0  0  0  0
    8.1883   -4.5468   -0.3322 H   0  0  0  0  0  0  0  0  0  0  0  0
    6.2223   -3.0219   -0.2462 H   0  0  0  0  0  0  0  0  0  0  0  0
    2.1019   -1.0996   -1.7077 H   0  0  0  0  0  0  0  0  0  0  0  0
  1  2  1  0
  1 20  1  0
  1 21  1  0
  1 22  1  0
  2  3  2  0
  2 19  1  0
  3  4  1  0
  3 23  1  0
  4  5  2  0
  4 24  1  0
  5  6  1  0
  5 17  1  0
  6  7  1  0
  6 16  1  0
  7  8  1  0
  7  9  2  0
  8 25  1  0
  8 26  1  0
  9 10  1  0
 10 11  1  0
 10 16  2  0
 11 12  2  0
 11 27  1  0
 12 13  1  0
 12 14  1  0
 13 28  1  0
 13 29  1  0
 13 30  1  0
 14 15  2  0
 14 31  1  0
 15 16  1  0
 15 32  1  0
 17 18  1  0
 17 19  2  0
 19 33  1  0
M  END

