
     RDKit          3D

 42 43  0  0  0  0  0  0  0  0999 V2000
   -2.0113    9.0119   -3.1802 C   0  0  0  0  0  0  0  0  0  0  0  0
   -2.3703    8.1661   -4.3578 C   0  0  0  0  0  0  0  0  0  0  0  0
   -2.1002    6.8237   -4.5820 C   0  0  0  0  0  0  0  0  0  0  0  0
   -1.4971    5.8757   -3.6225 C   0  0  0  0  0  0  0  0  0  0  0  0
   -1.2333    6.1923   -2.4701 O   0  0  0  0  0  0  0  0  0  0  0  0
   -1.1772    4.4770   -4.1260 C   0  0  0  0  0  0  0  0  0  0  0  0
    0.1253    4.4574   -4.9440 C   0  0  0  0  0  0  0  0  0  0  0  0
    0.4371    3.0843   -5.5466 C   0  0  2  0  0  0  0  0  0  0  0  0
   -0.3969    2.8117   -6.2182 H   0  0  0  0  0  0  0  0  0  0  0  0
    0.6099    1.9771   -4.5953 N   0  0  0  0  0  0  0  0  0  0  0  0
    1.6801    3.1476   -6.4674 C   0  0  0  0  0  0  0  0  0  0  0  0
    1.9520    4.1006   -7.1506 O   0  0  0  0  0  0  0  0  0  0  0  0
    2.3961    2.0219   -6.4506 O   0  0  0  0  0  0  0  0  0  0  0  0
   -2.5514    6.5076   -5.9409 C   0  0  0  0  0  0  0  0  0  0  0  0
   -2.5593    5.4674   -6.5775 O   0  0  0  0  0  0  0  0  0  0  0  0
   -3.0754    7.7308   -6.4381 N   0  0  0  0  0  0  0  0  0  0  0  0
   -4.0539    7.8117   -7.4638 C   0  0  0  0  0  0  0  0  0  0  0  0
   -3.7840    7.2142   -8.7042 C   0  0  0  0  0  0  0  0  0  0  0  0
   -4.7471    7.2585   -9.7137 C   0  0  0  0  0  0  0  0  0  0  0  0
   -5.9686    7.9072   -9.5066 C   0  0  0  0  0  0  0  0  0  0  0  0
   -6.2333    8.5006   -8.2690 C   0  0  0  0  0  0  0  0  0  0  0  0
   -5.2879    8.4441   -7.2423 C   0  0  0  0  0  0  0  0  0  0  0  0
   -3.0061    8.7063   -5.4409 N   0  0  0  0  0  0  0  0  0  0  0  0
   -2.8141   10.0891   -5.8653 C   0  0  0  0  0  0  0  0  0  0  0  0
   -1.7001    8.3549   -2.3608 H   0  0  0  0  0  0  0  0  0  0  0  0
   -2.8631    9.6323   -2.8603 H   0  0  0  0  0  0  0  0  0  0  0  0
   -1.1731    9.6880   -3.4223 H   0  0  0  0  0  0  0  0  0  0  0  0
   -1.9988    4.1121   -4.7607 H   0  0  0  0  0  0  0  0  0  0  0  0
   -1.0823    3.8402   -3.2334 H   0  0  0  0  0  0  0  0  0  0  0  0
    0.9694    4.7804   -4.3081 H   0  0  0  0  0  0  0  0  0  0  0  0
    0.0682    5.1691   -5.7794 H   0  0  0  0  0  0  0  0  0  0  0  0
   -0.2771    1.5518   -4.3326 H   0  0  0  0  0  0  0  0  0  0  0  0
    1.0563    2.2978   -3.7341 H   0  0  0  0  0  0  0  0  0  0  0  0
    1.9510    1.4607   -5.7676 H   0  0  0  0  0  0  0  0  0  0  0  0
   -2.8311    6.7097   -8.8597 H   0  0  0  0  0  0  0  0  0  0  0  0
   -4.5341    6.7866  -10.6760 H   0  0  0  0  0  0  0  0  0  0  0  0
   -6.7132    7.9467  -10.3052 H   0  0  0  0  0  0  0  0  0  0  0  0
   -7.1897    8.9989   -8.0917 H   0  0  0  0  0  0  0  0  0  0  0  0
   -5.5099    8.8735   -6.2633 H   0  0  0  0  0  0  0  0  0  0  0  0
   -1.8174   10.2345   -6.3180 H   0  0  0  0  0  0  0  0  0  0  0  0
   -2.9192   10.7449   -4.9928 H   0  0  0  0  0  0  0  0  0  0  0  0
   -3.5823   10.3633   -6.5986 H   0  0  0  0  0  0  0  0  0  0  0  0
  1  2  1  0
  1 25  1  0
  1 26  1  0
  1 27  1  0
  2  3  2  0
  2 23  1  0
  3  4  1  0
  3 14  1  0
  4  5  2  0
  4  6  1  0
  6  7  1  0
  6 28  1  0
  6 29  1  0
  7  8  1  0
  7 30  1  0
  7 31  1  0
  8  9  1  6
  8 10  1  0
  8 11  1  0
 10 32  1  0
 10 33  1  0
 11 12  2  0
 11 13  1  0
 13 34  1  0
 14 15  2  0
 14 16  1  0
 16 17  1  0
 16 23  1  0
 17 18  2  0
 17 22  1  0
 18 19  1  0
 18 35  1  0
 19 20  2  0
 19 36  1  0
 20 21  1  0
 20 37  1  0
 21 22  2  0
 21 38  1  0
 22 39  1  0
 23 24  1  0
 24 40  1  0
 24 41  1  0
 24 42  1  0
M  END

