
     RDKit          3D

 33 35  0  0  0  0  0  0  0  0999 V2000
    2.9449    1.4773   -0.6429 C   0  0  0  0  0  0  0  0  0  0  0  0
    2.2808    1.2746    0.7126 C   0  0  1  0  0  0  0  0  0  0  0  0
    2.7435    0.0242    1.4542 C   0  0  0  0  0  0  0  0  0  0  0  0
    2.0570   -0.9859    1.4784 O   0  0  0  0  0  0  0  0  0  0  0  0
    3.9823    0.0667    2.0600 N   0  0  0  0  0  0  0  0  0  0  0  0
    4.5082   -1.1292    2.7031 C   0  0  0  0  0  0  0  0  0  0  0  0
    5.8081   -1.5424    2.0158 C   0  0  0  0  0  0  0  0  0  0  0  0
    6.7656   -0.3771    1.8570 C   0  0  0  0  0  0  0  0  0  0  0  0
    8.1288   -0.6131    1.6258 C   0  0  0  0  0  0  0  0  0  0  0  0
    9.0273    0.4413    1.4745 C   0  0  0  0  0  0  0  0  0  0  0  0
    8.5746    1.7597    1.5608 C   0  0  0  0  0  0  0  0  0  0  0  0
    7.2195    1.9937    1.7935 C   0  0  0  0  0  0  0  0  0  0  0  0
    6.6437    3.8194    1.9270 Br  0  0  0  0  0  0  0  0  0  0  0  0
    6.2888    0.9493    1.9343 C   0  0  0  0  0  0  0  0  0  0  0  0
    4.8209    1.2418    2.2002 C   0  0  0  0  0  0  0  0  0  0  0  0
    1.8282    2.4731    1.5241 C   0  0  0  0  0  0  0  0  0  0  0  0
    0.8167    1.5918    0.8371 C   0  0  0  0  0  0  0  0  0  0  0  0
    4.0368    1.6058   -0.5688 H   0  0  0  0  0  0  0  0  0  0  0  0
    2.5370    2.3701   -1.1426 H   0  0  0  0  0  0  0  0  0  0  0  0
    2.7527    0.6092   -1.2941 H   0  0  0  0  0  0  0  0  0  0  0  0
    3.7435   -1.9112    2.6331 H   0  0  0  0  0  0  0  0  0  0  0  0
    4.6919   -0.9176    3.7736 H   0  0  0  0  0  0  0  0  0  0  0  0
    5.5691   -1.9571    1.0199 H   0  0  0  0  0  0  0  0  0  0  0  0
    6.2989   -2.3522    2.5805 H   0  0  0  0  0  0  0  0  0  0  0  0
    8.4859   -1.6451    1.5685 H   0  0  0  0  0  0  0  0  0  0  0  0
   10.0868    0.2431    1.2949 H   0  0  0  0  0  0  0  0  0  0  0  0
    9.2629    2.5989    1.4512 H   0  0  0  0  0  0  0  0  0  0  0  0
    4.4766    2.0338    1.5278 H   0  0  0  0  0  0  0  0  0  0  0  0
    4.7274    1.6600    3.2243 H   0  0  0  0  0  0  0  0  0  0  0  0
    2.0275    3.4694    1.1163 H   0  0  0  0  0  0  0  0  0  0  0  0
    1.8980    2.4176    2.6149 H   0  0  0  0  0  0  0  0  0  0  0  0
    0.3070    1.9799   -0.0493 H   0  0  0  0  0  0  0  0  0  0  0  0
    0.2117    0.9178    1.4483 H   0  0  0  0  0  0  0  0  0  0  0  0
  1  2  1  0
  1 18  1  0
  1 19  1  0
  1 20  1  0
  2  3  1  1
  2 16  1  0
  2 17  1  0
  3  4  2  0
  3  5  1  0
  5  6  1  0
  5 15  1  0
  6  7  1  0
  6 21  1  0
  6 22  1  0
  7  8  1  0
  7 23  1  0
  7 24  1  0
  8  9  2  0
  8 14  1  0
  9 10  1  0
  9 25  1  0
 10 11  2  0
 10 26  1  0
 11 12  1  0
 11 27  1  0
 12 13  1  0
 12 14  2  0
 14 15  1  0
 15 28  1  0
 15 29  1  0
 16 17  1  0
 16 30  1  0
 16 31  1  0
 17 32  1  0
 17 33  1  0
M  END

