
     RDKit          3D

 45 48  0  0  0  0  0  0  0  0999 V2000
    1.8322    0.2610    1.1704 N   0  0  0  0  0  0  0  0  0  0  0  0
    3.1808    0.0761    0.1295 S   0  0  1  0  0  0  0  0  0  0  0  0
    4.0685   -0.8741    0.7942 O   0  0  0  0  0  0  0  0  0  0  0  0
    2.6282   -0.1414   -1.2045 O   0  0  0  0  0  0  0  0  0  0  0  0
    3.9755    1.5333    0.0912 N   0  0  0  0  0  0  0  0  0  0  0  0
    3.4012    2.6477   -0.6733 C   0  0  0  0  0  0  0  0  0  0  0  0
    2.6065    3.6167    0.2149 C   0  0  0  0  0  0  0  0  0  0  0  0
    3.3885    4.0743    1.4635 C   0  0  2  0  0  0  0  0  0  0  0  0
    4.4768    5.0888    1.1375 C   0  0  0  0  0  0  0  0  0  0  0  0
    5.1123    5.1336    0.1075 O   0  0  0  0  0  0  0  0  0  0  0  0
    4.6938    6.0211    2.1649 N   0  0  0  0  0  0  0  0  0  0  0  0
    5.9206    6.6590    2.1999 N   0  0  0  0  0  0  0  0  0  0  0  0
    6.0943    7.8054    1.4696 C   0  0  0  0  0  0  0  0  0  0  0  0
    7.2116    8.4539    1.4082 N   0  0  0  0  0  0  0  0  0  0  0  0
    8.2394    7.9126    2.1113 C   0  0  0  0  0  0  0  0  0  0  0  0
    9.7997    8.6823    2.1868 S   0  0  0  0  0  0  0  0  0  0  0  0
   10.4072    7.4145    3.2026 C   0  0  0  0  0  0  0  0  0  0  0  0
    9.4798    6.4388    3.4918 C   0  0  0  0  0  0  0  0  0  0  0  0
    9.8015    5.2874    4.3342 C   0  0  0  0  0  0  0  0  0  0  0  0
   10.5161    5.1750    5.5031 C   0  0  0  0  0  0  0  0  0  0  0  0
   10.5399    3.7812    5.8286 C   0  0  0  0  0  0  0  0  0  0  0  0
    9.8413    3.1541    4.8350 C   0  0  0  0  0  0  0  0  0  0  0  0
    9.3969    4.0535    3.9281 O   0  0  0  0  0  0  0  0  0  0  0  0
    8.2108    6.7321    2.8650 C   0  0  0  0  0  0  0  0  0  0  0  0
    6.9488    6.0199    2.9708 C   0  0  0  0  0  0  0  0  0  0  0  0
    6.6686    5.0289    3.6191 O   0  0  0  0  0  0  0  0  0  0  0  0
    4.0159    2.8581    2.2024 C   0  0  0  0  0  0  0  0  0  0  0  0
    4.7843    1.9376    1.2461 C   0  0  0  0  0  0  0  0  0  0  0  0
    1.9181   -0.4119    1.9331 H   0  0  0  0  0  0  0  0  0  0  0  0
    0.9823    0.0802    0.6348 H   0  0  0  0  0  0  0  0  0  0  0  0
    2.7723    2.2333   -1.4715 H   0  0  0  0  0  0  0  0  0  0  0  0
    4.2379    3.1808   -1.1486 H   0  0  0  0  0  0  0  0  0  0  0  0
    1.6865    3.1186    0.5605 H   0  0  0  0  0  0  0  0  0  0  0  0
    2.3014    4.4892   -0.3849 H   0  0  0  0  0  0  0  0  0  0  0  0
    2.6847    4.5657    2.1568 H   0  0  0  0  0  0  0  0  0  0  0  0
    4.3878    5.7485    3.0965 H   0  0  0  0  0  0  0  0  0  0  0  0
    5.2052    8.1516    0.9342 H   0  0  0  0  0  0  0  0  0  0  0  0
   11.4489    7.4267    3.5192 H   0  0  0  0  0  0  0  0  0  0  0  0
   10.9481    5.9958    6.0713 H   0  0  0  0  0  0  0  0  0  0  0  0
   11.0055    3.3107    6.6920 H   0  0  0  0  0  0  0  0  0  0  0  0
    9.5843    2.1155    4.6440 H   0  0  0  0  0  0  0  0  0  0  0  0
    3.1985    2.2912    2.6753 H   0  0  0  0  0  0  0  0  0  0  0  0
    4.6954    3.1999    2.9999 H   0  0  0  0  0  0  0  0  0  0  0  0
    5.1358    1.0346    1.7612 H   0  0  0  0  0  0  0  0  0  0  0  0
    5.6764    2.4528    0.8521 H   0  0  0  0  0  0  0  0  0  0  0  0
  2  1  1  1
  1 29  1  0
  1 30  1  0
  2  3  2  0
  2  4  2  0
  2  5  1  0
  5  6  1  0
  5 28  1  0
  6  7  1  0
  6 31  1  0
  6 32  1  0
  7  8  1  0
  7 33  1  0
  7 34  1  0
  8  9  1  0
  8 27  1  0
  8 35  1  1
  9 10  2  0
  9 11  1  0
 11 12  1  0
 11 36  1  0
 12 13  1  0
 12 25  1  0
 13 14  2  0
 13 37  1  0
 14 15  1  0
 15 16  2  0
 15 24  1  0
 16 17  1  0
 17 18  2  0
 17 38  1  0
 18 19  1  0
 18 24  1  0
 19 20  2  0
 19 23  1  0
 20 21  1  0
 20 39  1  0
 21 22  2  0
 21 40  1  0
 22 23  1  0
 22 41  1  0
 24 25  2  0
 25 26  1  0
 27 28  1  0
 27 42  1  0
 27 43  1  0
 28 44  1  0
 28 45  1  0
M  CHG  2  16   1  26  -1
M  END

