
     RDKit          3D

 45 45  0  0  0  0  0  0  0  0999 V2000
    6.4361    0.5477    4.0697 C   0  0  0  0  0  0  0  0  0  0  0  0
    6.2747    0.2552    2.7087 O   0  0  0  0  0  0  0  0  0  0  0  0
    6.6843    1.2880    1.8510 C   0  0  0  0  0  0  0  0  0  0  0  0
    6.4490    0.8340    0.4205 C   0  0  0  0  0  0  0  0  0  0  0  0
    6.8542    1.8667   -0.4417 O   0  0  0  0  0  0  0  0  0  0  0  0
    6.6784    1.5844   -1.8120 C   0  0  0  0  0  0  0  0  0  0  0  0
    7.1512    2.7713   -2.6366 C   0  0  0  0  0  0  0  0  0  0  0  0
    8.6256    3.0919   -2.4383 C   0  0  0  0  0  0  0  0  0  0  0  0
    8.9678    4.1841   -3.2608 O   0  0  0  0  0  0  0  0  0  0  0  0
   10.3065    4.5964   -3.1395 C   0  0  0  0  0  0  0  0  0  0  0  0
   10.6068    5.7059   -4.1197 C   0  0  0  0  0  0  0  0  0  0  0  0
   11.5645    6.6811   -3.8336 C   0  0  0  0  0  0  0  0  0  0  0  0
   11.8820    7.6724   -4.7662 C   0  0  0  0  0  0  0  0  0  0  0  0
   11.2353    7.7138   -6.0096 C   0  0  0  0  0  0  0  0  0  0  0  0
   11.5073    8.6528   -6.9533 O   0  0  0  0  0  0  0  0  0  0  0  0
   12.4374    9.6766   -6.6798 C   0  0  0  0  0  0  0  0  0  0  0  0
   10.2406    6.7481   -6.3162 C   0  0  0  0  0  0  0  0  0  0  0  0
    9.4960    6.7431   -7.6228 C   0  0  0  0  0  0  0  0  0  0  0  0
    9.9489    7.0950   -8.7680 N   0  0  0  0  0  0  0  0  0  0  0  0
    8.2098    6.2235   -7.5383 N   0  0  0  0  0  0  0  0  0  0  0  0
    9.9574    5.7633   -5.3592 C   0  0  0  0  0  0  0  0  0  0  0  0
    6.0869   -0.3218    4.6458 H   0  0  0  0  0  0  0  0  0  0  0  0
    5.8455    1.4348    4.3778 H   0  0  0  0  0  0  0  0  0  0  0  0
    7.4970    0.7405    4.3312 H   0  0  0  0  0  0  0  0  0  0  0  0
    7.7590    1.5297    1.9902 H   0  0  0  0  0  0  0  0  0  0  0  0
    6.1158    2.2228    2.0387 H   0  0  0  0  0  0  0  0  0  0  0  0
    5.3749    0.5919    0.2841 H   0  0  0  0  0  0  0  0  0  0  0  0
    7.0181   -0.0993    0.2312 H   0  0  0  0  0  0  0  0  0  0  0  0
    5.6106    1.3748   -2.0292 H   0  0  0  0  0  0  0  0  0  0  0  0
    7.2447    0.6691   -2.0898 H   0  0  0  0  0  0  0  0  0  0  0  0
    6.5544    3.6611   -2.3766 H   0  0  0  0  0  0  0  0  0  0  0  0
    6.9684    2.5599   -3.7035 H   0  0  0  0  0  0  0  0  0  0  0  0
    9.2488    2.2063   -2.6911 H   0  0  0  0  0  0  0  0  0  0  0  0
    8.8186    3.3260   -1.3731 H   0  0  0  0  0  0  0  0  0  0  0  0
   10.9855    3.7344   -3.3271 H   0  0  0  0  0  0  0  0  0  0  0  0
   10.5224    4.9386   -2.1055 H   0  0  0  0  0  0  0  0  0  0  0  0
   12.0794    6.6774   -2.8681 H   0  0  0  0  0  0  0  0  0  0  0  0
   12.6336    8.4186   -4.5105 H   0  0  0  0  0  0  0  0  0  0  0  0
   12.4665   10.3151   -7.5729 H   0  0  0  0  0  0  0  0  0  0  0  0
   13.4499    9.2755   -6.4934 H   0  0  0  0  0  0  0  0  0  0  0  0
   12.1309   10.2876   -5.8121 H   0  0  0  0  0  0  0  0  0  0  0  0
   10.9190    7.3974   -8.6885 H   0  0  0  0  0  0  0  0  0  0  0  0
    7.6835    6.4312   -6.6967 H   0  0  0  0  0  0  0  0  0  0  0  0
    7.6842    6.3313   -8.4007 H   0  0  0  0  0  0  0  0  0  0  0  0
    9.2021    5.0119   -5.5893 H   0  0  0  0  0  0  0  0  0  0  0  0
  1  2  1  0
  1 22  1  0
  1 23  1  0
  1 24  1  0
  2  3  1  0
  3  4  1  0
  3 25  1  0
  3 26  1  0
  4  5  1  0
  4 27  1  0
  4 28  1  0
  5  6  1  0
  6  7  1  0
  6 29  1  0
  6 30  1  0
  7  8  1  0
  7 31  1  0
  7 32  1  0
  8  9  1  0
  8 33  1  0
  8 34  1  0
  9 10  1  0
 10 11  1  0
 10 35  1  0
 10 36  1  0
 11 12  2  0
 11 21  1  0
 12 13  1  0
 12 37  1  0
 13 14  2  0
 13 38  1  0
 14 15  1  0
 14 17  1  0
 15 16  1  0
 16 39  1  0
 16 40  1  0
 16 41  1  0
 17 18  1  0
 17 21  2  0
 18 19  2  0
 18 20  1  0
 19 42  1  0
 20 43  1  0
 20 44  1  0
 21 45  1  0
M  END

