
     RDKit          3D

 40 41  0  0  0  0  0  0  0  0999 V2000
   -0.5137   -0.2479    1.7928 C   0  0  0  0  0  0  0  0  0  0  0  0
    0.9732   -0.2763    1.4374 C   0  0  0  0  0  0  0  0  0  0  0  0
    1.7731   -1.3139    2.2513 C   0  0  0  0  0  0  0  0  0  0  0  0
    3.2508   -1.3689    1.9241 C   0  0  0  0  0  0  0  0  0  0  0  0
    4.1671   -0.6678    2.7165 C   0  0  0  0  0  0  0  0  0  0  0  0
    5.5404   -0.6776    2.4564 C   0  0  0  0  0  0  0  0  0  0  0  0
    6.0105   -1.4139    1.3691 C   0  0  0  0  0  0  0  0  0  0  0  0
    5.1229   -2.1217    0.5564 C   0  0  0  0  0  0  0  0  0  0  0  0
    3.7378   -2.1147    0.8140 C   0  0  0  0  0  0  0  0  0  0  0  0
    2.8385   -2.8626    0.0414 N   0  0  0  0  0  0  0  0  0  0  0  0
    3.1614   -3.4464   -1.2568 C   0  0  2  0  0  0  0  0  0  0  0  0
    4.1552   -3.9157   -1.1733 H   0  0  0  0  0  0  0  0  0  0  0  0
    3.1726   -2.4408   -2.4213 C   0  0  0  0  0  0  0  0  0  0  0  0
    3.4574   -3.1320   -3.7612 C   0  0  0  0  0  0  0  0  0  0  0  0
    2.4729   -4.2804   -4.0195 C   0  0  0  0  0  0  0  0  0  0  0  0
    2.4622   -5.2808   -2.8581 C   0  0  0  0  0  0  0  0  0  0  0  0
    2.1755   -4.5998   -1.5214 C   0  0  1  0  0  0  0  0  0  0  0  0
    1.1533   -4.1539   -1.5732 H   0  0  0  0  0  0  0  0  0  0  0  0
    2.2414   -5.5596   -0.4933 O   0  0  0  0  0  0  0  0  0  0  0  0
   -1.0557    0.5092    1.2040 H   0  0  0  0  0  0  0  0  0  0  0  0
   -0.6648   -0.0112    2.8593 H   0  0  0  0  0  0  0  0  0  0  0  0
   -0.9930   -1.2233    1.6034 H   0  0  0  0  0  0  0  0  0  0  0  0
    1.4197    0.7191    1.6033 H   0  0  0  0  0  0  0  0  0  0  0  0
    1.0930   -0.4712    0.3559 H   0  0  0  0  0  0  0  0  0  0  0  0
    1.3171   -2.3124    2.1175 H   0  0  0  0  0  0  0  0  0  0  0  0
    1.6556   -1.0791    3.3223 H   0  0  0  0  0  0  0  0  0  0  0  0
    3.7856   -0.1016    3.5720 H   0  0  0  0  0  0  0  0  0  0  0  0
    6.2292   -0.1216    3.0963 H   0  0  0  0  0  0  0  0  0  0  0  0
    7.0794   -1.4410    1.1410 H   0  0  0  0  0  0  0  0  0  0  0  0
    5.5180   -2.6856   -0.2887 H   0  0  0  0  0  0  0  0  0  0  0  0
    1.8868   -2.5120    0.0778 H   0  0  0  0  0  0  0  0  0  0  0  0
    3.9125   -1.6491   -2.2208 H   0  0  0  0  0  0  0  0  0  0  0  0
    2.1859   -1.9423   -2.4646 H   0  0  0  0  0  0  0  0  0  0  0  0
    4.4882   -3.5315   -3.7521 H   0  0  0  0  0  0  0  0  0  0  0  0
    3.4184   -2.3973   -4.5825 H   0  0  0  0  0  0  0  0  0  0  0  0
    2.7233   -4.7972   -4.9605 H   0  0  0  0  0  0  0  0  0  0  0  0
    1.4578   -3.8644   -4.1571 H   0  0  0  0  0  0  0  0  0  0  0  0
    3.4419   -5.7843   -2.7766 H   0  0  0  0  0  0  0  0  0  0  0  0
    1.7154   -6.0747   -3.0206 H   0  0  0  0  0  0  0  0  0  0  0  0
    2.3367   -5.0583    0.3324 H   0  0  0  0  0  0  0  0  0  0  0  0
  1  2  1  0
  1 20  1  0
  1 21  1  0
  1 22  1  0
  2  3  1  0
  2 23  1  0
  2 24  1  0
  3  4  1  0
  3 25  1  0
  3 26  1  0
  4  5  2  0
  4  9  1  0
  5  6  1  0
  5 27  1  0
  6  7  2  0
  6 28  1  0
  7  8  1  0
  7 29  1  0
  8  9  2  0
  8 30  1  0
  9 10  1  0
 10 11  1  0
 10 31  1  0
 11 12  1  1
 11 13  1  0
 11 17  1  0
 13 14  1  0
 13 32  1  0
 13 33  1  0
 14 15  1  0
 14 34  1  0
 14 35  1  0
 15 16  1  0
 15 36  1  0
 15 37  1  0
 16 17  1  0
 16 38  1  0
 16 39  1  0
 17 18  1  6
 17 19  1  0
 19 40  1  0
M  END

