
     RDKit          3D

 41 41  0  0  0  0  0  0  0  0999 V2000
    0.8850   -0.4553    0.1928 C   0  0  0  0  0  0  0  0  0  0  0  0
    2.3385   -0.0555   -0.1019 C   0  0  1  0  0  0  0  0  0  0  0  0
    2.7375   -0.3747   -1.5553 C   0  0  0  0  0  0  0  0  0  0  0  0
    2.7461   -1.8687   -1.9036 C   0  0  0  0  0  0  0  0  0  0  0  0
    3.1873   -2.1290   -3.2602 N   0  0  0  0  0  0  0  0  0  0  0  0
    2.3648   -2.6532   -4.2242 C   0  0  0  0  0  0  0  0  0  0  0  0
    1.2057   -2.9759   -4.0021 O   0  0  0  0  0  0  0  0  0  0  0  0
    3.0054   -2.8036   -5.5651 C   0  0  0  0  0  0  0  0  0  0  0  0
    2.3028   -3.3161   -6.5920 C   0  0  0  0  0  0  0  0  0  0  0  0
    2.7503   -3.5413   -7.9707 C   0  0  0  0  0  0  0  0  0  0  0  0
    4.0487   -3.2334   -8.4267 C   0  0  0  0  0  0  0  0  0  0  0  0
    4.4113   -3.4719   -9.7500 C   0  0  0  0  0  0  0  0  0  0  0  0
    3.4970   -4.0218  -10.6568 C   0  0  0  0  0  0  0  0  0  0  0  0
    2.2102   -4.3280  -10.2090 C   0  0  0  0  0  0  0  0  0  0  0  0
    0.9449   -5.0777  -11.4246 Br  0  0  0  0  0  0  0  0  0  0  0  0
    1.8331   -4.0945   -8.8861 C   0  0  0  0  0  0  0  0  0  0  0  0
    2.6096    1.4310    0.1947 C   0  0  0  0  0  0  0  0  0  0  0  0
    2.4195    1.8467    1.6526 C   0  0  0  0  0  0  0  0  0  0  0  0
    2.8735    3.2754    1.9317 C   0  0  0  0  0  0  0  0  0  0  0  0
    3.4367    3.9810    1.1419 O   0  0  0  0  0  0  0  0  0  0  0  0
    2.6102    3.7263    3.1828 O   0  0  0  0  0  0  0  0  0  0  0  0
    0.7041   -1.5224   -0.0050 H   0  0  0  0  0  0  0  0  0  0  0  0
    0.1855    0.1215   -0.4364 H   0  0  0  0  0  0  0  0  0  0  0  0
    0.6143   -0.2764    1.2451 H   0  0  0  0  0  0  0  0  0  0  0  0
    2.9968   -0.6518    0.5614 H   0  0  0  0  0  0  0  0  0  0  0  0
    3.7458    0.0377   -1.7425 H   0  0  0  0  0  0  0  0  0  0  0  0
    2.0577    0.1500   -2.2501 H   0  0  0  0  0  0  0  0  0  0  0  0
    1.7388   -2.3004   -1.8308 H   0  0  0  0  0  0  0  0  0  0  0  0
    3.3923   -2.4133   -1.1897 H   0  0  0  0  0  0  0  0  0  0  0  0
    4.1290   -1.8614   -3.5203 H   0  0  0  0  0  0  0  0  0  0  0  0
    4.0476   -2.4887   -5.6807 H   0  0  0  0  0  0  0  0  0  0  0  0
    1.2691   -3.5978   -6.3626 H   0  0  0  0  0  0  0  0  0  0  0  0
    4.7810   -2.8037   -7.7407 H   0  0  0  0  0  0  0  0  0  0  0  0
    5.4210   -3.2284  -10.0901 H   0  0  0  0  0  0  0  0  0  0  0  0
    3.7803   -4.2088  -11.6937 H   0  0  0  0  0  0  0  0  0  0  0  0
    0.8224   -4.3406   -8.5555 H   0  0  0  0  0  0  0  0  0  0  0  0
    1.9652    2.0594   -0.4448 H   0  0  0  0  0  0  0  0  0  0  0  0
    3.6425    1.6814   -0.0952 H   0  0  0  0  0  0  0  0  0  0  0  0
    2.9942    1.1803    2.3243 H   0  0  0  0  0  0  0  0  0  0  0  0
    1.3654    1.7534    1.9684 H   0  0  0  0  0  0  0  0  0  0  0  0
    2.1488    3.0490    3.6974 H   0  0  0  0  0  0  0  0  0  0  0  0
  1  2  1  0
  1 22  1  0
  1 23  1  0
  1 24  1  0
  2  3  1  0
  2 17  1  0
  2 25  1  1
  3  4  1  0
  3 26  1  0
  3 27  1  0
  4  5  1  0
  4 28  1  0
  4 29  1  0
  5  6  1  0
  5 30  1  0
  6  7  2  0
  6  8  1  0
  8  9  2  0
  8 31  1  0
  9 10  1  0
  9 32  1  0
 10 11  2  0
 10 16  1  0
 11 12  1  0
 11 33  1  0
 12 13  2  0
 12 34  1  0
 13 14  1  0
 13 35  1  0
 14 15  1  0
 14 16  2  0
 16 36  1  0
 17 18  1  0
 17 37  1  0
 17 38  1  0
 18 19  1  0
 18 39  1  0
 18 40  1  0
 19 20  2  0
 19 21  1  0
 21 41  1  0
M  END

