
     RDKit          3D

 28 28  0  0  0  0  0  0  0  0999 V2000
    8.0653    2.9444   -1.4746 C   0  0  0  0  0  0  0  0  0  0  0  0
    7.1661    1.9079   -0.9749 C   0  0  0  0  0  0  0  0  0  0  0  0
    6.4162    1.0454   -0.5697 C   0  0  0  0  0  0  0  0  0  0  0  0
    5.5025    0.0161   -0.0521 C   0  0  0  0  0  0  0  0  0  0  0  0
    5.9866   -1.3342   -0.2616 N   0  0  0  0  0  0  0  0  0  0  0  0
    7.1971   -1.7125    0.4443 C   0  0  0  0  0  0  0  0  0  0  0  0
    7.3630   -3.1751    0.0403 C   0  0  0  0  0  0  0  0  0  0  0  0
    5.9150   -3.6918    0.0691 C   0  0  0  0  0  0  0  0  0  0  0  0
    5.0095   -2.4533   -0.2370 C   0  0  1  0  0  0  0  0  0  0  0  0
    3.9347   -2.3030    0.8609 C   0  0  0  0  0  0  0  0  0  0  0  0
    4.3355   -2.5695   -1.6138 C   0  0  0  0  0  0  0  0  0  0  0  0
    7.5132    3.7176   -2.0345 H   0  0  0  0  0  0  0  0  0  0  0  0
    8.8227    2.5206   -2.1549 H   0  0  0  0  0  0  0  0  0  0  0  0
    8.6006    3.4471   -0.6518 H   0  0  0  0  0  0  0  0  0  0  0  0
    4.5330    0.1264   -0.5674 H   0  0  0  0  0  0  0  0  0  0  0  0
    5.3011    0.2400    1.0225 H   0  0  0  0  0  0  0  0  0  0  0  0
    7.1017   -1.6175    1.5538 H   0  0  0  0  0  0  0  0  0  0  0  0
    8.0412   -1.0730    0.1399 H   0  0  0  0  0  0  0  0  0  0  0  0
    8.0331   -3.7374    0.7086 H   0  0  0  0  0  0  0  0  0  0  0  0
    7.7778   -3.2276   -0.9788 H   0  0  0  0  0  0  0  0  0  0  0  0
    5.6778   -4.0859    1.0702 H   0  0  0  0  0  0  0  0  0  0  0  0
    5.7399   -4.5106   -0.6452 H   0  0  0  0  0  0  0  0  0  0  0  0
    4.3925   -2.1406    1.8502 H   0  0  0  0  0  0  0  0  0  0  0  0
    3.3199   -3.2153    0.9236 H   0  0  0  0  0  0  0  0  0  0  0  0
    3.2524   -1.4620    0.6587 H   0  0  0  0  0  0  0  0  0  0  0  0
    5.0912   -2.7363   -2.3963 H   0  0  0  0  0  0  0  0  0  0  0  0
    3.7874   -1.6476   -1.8691 H   0  0  0  0  0  0  0  0  0  0  0  0
    3.6128   -3.4019   -1.6348 H   0  0  0  0  0  0  0  0  0  0  0  0
  1  2  1  0
  1 12  1  0
  1 13  1  0
  1 14  1  0
  2  3  3  0
  3  4  1  0
  4  5  1  0
  4 15  1  0
  4 16  1  0
  5  6  1  0
  5  9  1  0
  6  7  1  0
  6 17  1  0
  6 18  1  0
  7  8  1  0
  7 19  1  0
  7 20  1  0
  8  9  1  0
  8 21  1  0
  8 22  1  0
  9 10  1  1
  9 11  1  0
 10 23  1  0
 10 24  1  0
 10 25  1  0
 11 26  1  0
 11 27  1  0
 11 28  1  0
M  END

