
     RDKit          3D

 50 52  0  0  0  0  0  0  0  0999 V2000
    1.7375   -0.4556   -2.1597 C   0  0  0  0  0  0  0  0  0  0  0  0
    2.8508   -0.1683   -1.1760 C   0  0  0  0  0  0  0  0  0  0  0  0
    3.5515    1.0455   -1.2735 C   0  0  0  0  0  0  0  0  0  0  0  0
    4.5876    1.3701   -0.3968 C   0  0  0  0  0  0  0  0  0  0  0  0
    4.9440    0.4687    0.6077 C   0  0  0  0  0  0  0  0  0  0  0  0
    4.2583   -0.7419    0.7169 C   0  0  0  0  0  0  0  0  0  0  0  0
    3.2132   -1.0833   -0.1583 C   0  0  0  0  0  0  0  0  0  0  0  0
    2.5014   -2.4140    0.0090 C   0  0  1  0  0  0  0  0  0  0  0  0
    3.3860   -3.6800   -0.0494 C   0  0  0  0  0  0  0  0  0  0  0  0
    2.4810   -4.7714    0.5276 C   0  0  0  0  0  0  0  0  0  0  0  0
    1.6646   -4.0449    1.5024 N   0  0  0  0  0  0  0  0  0  0  0  0
    0.8220   -4.7328    2.3441 C   0  0  0  0  0  0  0  0  0  0  0  0
    0.7199   -5.9532    2.3030 O   0  0  0  0  0  0  0  0  0  0  0  0
    0.0857   -3.9530    3.2225 N   0  0  0  0  0  0  0  0  0  0  0  0
   -0.7001   -4.5924    4.2844 C   0  0  1  0  0  0  0  0  0  0  0  0
   -1.0411   -3.5625    5.3723 C   0  0  0  0  0  0  0  0  0  0  0  0
   -2.0650   -2.5102    4.9167 C   0  0  0  0  0  0  0  0  0  0  0  0
   -3.3421   -3.1501    4.3459 C   0  0  2  0  0  0  0  0  0  0  0  0
   -4.2100   -3.7424    5.4668 C   0  0  0  0  0  0  0  0  0  0  0  0
   -4.0100   -3.5781    6.6403 O   0  0  0  0  0  0  0  0  0  0  0  0
   -5.2838   -4.4590    5.0610 O   0  0  0  0  0  0  0  0  0  0  0  0
   -2.9835   -4.1677    3.2385 C   0  0  0  0  0  0  0  0  0  0  0  0
   -1.9892   -5.2262    3.7245 C   0  0  0  0  0  0  0  0  0  0  0  0
    1.7607   -2.5977    1.3552 C   0  0  0  0  0  0  0  0  0  0  0  0
    1.6092    0.3841   -2.8580 H   0  0  0  0  0  0  0  0  0  0  0  0
    0.7692   -0.6157   -1.6569 H   0  0  0  0  0  0  0  0  0  0  0  0
    1.9390   -1.3565   -2.7630 H   0  0  0  0  0  0  0  0  0  0  0  0
    3.2731    1.7526   -2.0601 H   0  0  0  0  0  0  0  0  0  0  0  0
    5.1132    2.3229   -0.4993 H   0  0  0  0  0  0  0  0  0  0  0  0
    5.7530    0.7040    1.3038 H   0  0  0  0  0  0  0  0  0  0  0  0
    4.5481   -1.4415    1.5059 H   0  0  0  0  0  0  0  0  0  0  0  0
    1.7452   -2.5185   -0.7821 H   0  0  0  0  0  0  0  0  0  0  0  0
    4.2792   -3.5496    0.5830 H   0  0  0  0  0  0  0  0  0  0  0  0
    3.7328   -3.9046   -1.0689 H   0  0  0  0  0  0  0  0  0  0  0  0
    3.0325   -5.5906    1.0126 H   0  0  0  0  0  0  0  0  0  0  0  0
    1.8448   -5.2327   -0.2505 H   0  0  0  0  0  0  0  0  0  0  0  0
    0.4325   -3.0224    3.4225 H   0  0  0  0  0  0  0  0  0  0  0  0
   -0.0941   -5.4025    4.7251 H   0  0  0  0  0  0  0  0  0  0  0  0
   -0.1188   -3.0684    5.7254 H   0  0  0  0  0  0  0  0  0  0  0  0
   -1.4524   -4.1010    6.2397 H   0  0  0  0  0  0  0  0  0  0  0  0
   -1.6287   -1.8635    4.1362 H   0  0  0  0  0  0  0  0  0  0  0  0
   -2.3265   -1.8602    5.7640 H   0  0  0  0  0  0  0  0  0  0  0  0
   -3.9676   -2.3543    3.8978 H   0  0  0  0  0  0  0  0  0  0  0  0
   -5.3045   -4.5160    4.0951 H   0  0  0  0  0  0  0  0  0  0  0  0
   -2.5372   -3.6116    2.3979 H   0  0  0  0  0  0  0  0  0  0  0  0
   -3.8832   -4.6533    2.8182 H   0  0  0  0  0  0  0  0  0  0  0  0
   -1.7189   -5.9155    2.9122 H   0  0  0  0  0  0  0  0  0  0  0  0
   -2.4477   -5.8370    4.5224 H   0  0  0  0  0  0  0  0  0  0  0  0
    2.3337   -2.1332    2.1822 H   0  0  0  0  0  0  0  0  0  0  0  0
    0.7642   -2.1235    1.3389 H   0  0  0  0  0  0  0  0  0  0  0  0
  1  2  1  0
  1 25  1  0
  1 26  1  0
  1 27  1  0
  2  3  2  0
  2  7  1  0
  3  4  1  0
  3 28  1  0
  4  5  2  0
  4 29  1  0
  5  6  1  0
  5 30  1  0
  6  7  2  0
  6 31  1  0
  7  8  1  0
  8  9  1  0
  8 24  1  0
  8 32  1  6
  9 10  1  0
  9 33  1  0
  9 34  1  0
 10 11  1  0
 10 35  1  0
 10 36  1  0
 11 12  1  0
 11 24  1  0
 12 13  2  0
 12 14  1  0
 14 15  1  0
 14 37  1  0
 15 16  1  0
 15 23  1  0
 15 38  1  1
 16 17  1  0
 16 39  1  0
 16 40  1  0
 17 18  1  0
 17 41  1  0
 17 42  1  0
 18 19  1  0
 18 22  1  0
 18 43  1  6
 19 20  2  0
 19 21  1  0
 21 44  1  0
 22 23  1  0
 22 45  1  0
 22 46  1  0
 23 47  1  0
 23 48  1  0
 24 49  1  0
 24 50  1  0
M  END

