
     RDKit          3D

 23 24  0  0  0  0  0  0  0  0999 V2000
    2.4059   -3.0068    2.5325 C   0  0  0  0  0  0  0  0  0  0  0  0
    2.4086   -2.0667    1.4244 N   0  0  0  0  0  0  0  0  0  0  0  0
    3.0711   -0.8032    1.7015 C   0  0  0  0  0  0  0  0  0  0  0  0
    4.5746   -0.8618    1.5176 C   0  0  0  0  0  0  0  0  0  0  0  0
    5.2100   -1.8292    0.7688 C   0  0  0  0  0  0  0  0  0  0  0  0
    6.6259   -1.8192    0.6047 C   0  0  0  0  0  0  0  0  0  0  0  0
    7.3914   -0.8457    1.1863 C   0  0  0  0  0  0  0  0  0  0  0  0
    6.7658    0.1236    1.9343 N   0  0  0  0  0  0  0  0  0  0  0  0
    7.2544    1.2142    2.6258 C   0  0  0  0  0  0  0  0  0  0  0  0
    9.0778    1.6375    2.6929 Br  0  0  0  0  0  0  0  0  0  0  0  0
    6.1546    1.8359    3.1953 C   0  0  0  0  0  0  0  0  0  0  0  0
    5.0082    1.1832    2.8798 N   0  0  0  0  0  0  0  0  0  0  0  0
    5.3712    0.1505    2.1236 C   0  0  0  0  0  0  0  0  0  0  0  0
    1.8456   -3.9130    2.2534 H   0  0  0  0  0  0  0  0  0  0  0  0
    1.9650   -2.6024    3.4700 H   0  0  0  0  0  0  0  0  0  0  0  0
    3.4367   -3.3191    2.7667 H   0  0  0  0  0  0  0  0  0  0  0  0
    1.4586   -1.8953    1.1067 H   0  0  0  0  0  0  0  0  0  0  0  0
    2.8641   -0.4088    2.7185 H   0  0  0  0  0  0  0  0  0  0  0  0
    2.6771   -0.0389    1.0084 H   0  0  0  0  0  0  0  0  0  0  0  0
    4.5996   -2.6040    0.3015 H   0  0  0  0  0  0  0  0  0  0  0  0
    7.1176   -2.5904    0.0094 H   0  0  0  0  0  0  0  0  0  0  0  0
    8.4758   -0.7740    1.1033 H   0  0  0  0  0  0  0  0  0  0  0  0
    6.1677    2.7314    3.8158 H   0  0  0  0  0  0  0  0  0  0  0  0
  1  2  1  0
  1 14  1  0
  1 15  1  0
  1 16  1  0
  2  3  1  0
  2 17  1  0
  3  4  1  0
  3 18  1  0
  3 19  1  0
  4  5  2  0
  4 13  1  0
  5  6  1  0
  5 20  1  0
  6  7  2  0
  6 21  1  0
  7  8  1  0
  7 22  1  0
  8  9  1  0
  8 13  1  0
  9 10  1  0
  9 11  2  0
 11 12  1  0
 11 23  1  0
 12 13  2  0
M  END

