
     RDKit          3D

 36 38  0  0  0  0  0  0  0  0999 V2000
    3.3605    0.7734   -0.0179 N   0  0  0  0  0  0  0  0  0  0  0  0
    3.5887   -0.6555    0.1915 C   0  0  1  0  0  0  0  0  0  0  0  0
    2.3968   -1.3873    0.8492 C   0  0  0  0  0  0  0  0  0  0  0  0
    1.9684   -0.7457    2.0937 N   0  0  0  0  0  0  0  0  0  0  0  0
    0.5244   -0.8212    2.3536 C   0  0  0  0  0  0  0  0  0  0  0  0
   -0.0401   -2.1817    2.7031 C   0  0  0  0  0  0  0  0  0  0  0  0
   -0.2638   -2.7071    3.9557 C   0  0  0  0  0  0  0  0  0  0  0  0
   -0.7762   -4.0404    3.9348 C   0  0  0  0  0  0  0  0  0  0  0  0
   -0.9395   -4.5215    2.6608 C   0  0  0  0  0  0  0  0  0  0  0  0
   -0.4707   -3.3492    1.4780 S   0  0  0  0  0  0  0  0  0  0  0  0
    2.7781   -1.0807    3.2351 C   0  0  1  0  0  0  0  0  0  0  0  0
    4.0311   -0.2931    3.5392 C   0  0  0  0  0  0  0  0  0  0  0  0
    2.8104   -0.1356    4.4076 C   0  0  0  0  0  0  0  0  0  0  0  0
    3.9950   -1.3014   -1.1109 C   0  0  0  0  0  0  0  0  0  0  0  0
    3.7431   -2.5642   -1.5967 C   0  0  0  0  0  0  0  0  0  0  0  0
    4.3517   -2.8134   -2.8664 C   0  0  0  0  0  0  0  0  0  0  0  0
    5.0574   -1.7342   -3.3314 C   0  0  0  0  0  0  0  0  0  0  0  0
    4.9868   -0.3997   -2.2309 S   0  0  0  0  0  0  0  0  0  0  0  0
    2.9792    1.1621    0.8465 H   0  0  0  0  0  0  0  0  0  0  0  0
    2.6358    0.9016   -0.7277 H   0  0  0  0  0  0  0  0  0  0  0  0
    4.4463   -0.7392    0.8829 H   0  0  0  0  0  0  0  0  0  0  0  0
    2.6498   -2.4549    1.0089 H   0  0  0  0  0  0  0  0  0  0  0  0
    1.5554   -1.3664    0.1372 H   0  0  0  0  0  0  0  0  0  0  0  0
    0.0037   -0.4129    1.4725 H   0  0  0  0  0  0  0  0  0  0  0  0
    0.2975   -0.1471    3.1940 H   0  0  0  0  0  0  0  0  0  0  0  0
   -0.0710   -2.1438    4.8710 H   0  0  0  0  0  0  0  0  0  0  0  0
   -1.0186   -4.6163    4.8295 H   0  0  0  0  0  0  0  0  0  0  0  0
   -1.3133   -5.4961    2.3496 H   0  0  0  0  0  0  0  0  0  0  0  0
    2.8234   -2.1530    3.4891 H   0  0  0  0  0  0  0  0  0  0  0  0
    4.2854    0.5405    2.8804 H   0  0  0  0  0  0  0  0  0  0  0  0
    4.8936   -0.8374    3.9341 H   0  0  0  0  0  0  0  0  0  0  0  0
    2.2520    0.7997    4.3112 H   0  0  0  0  0  0  0  0  0  0  0  0
    2.8158   -0.5605    5.4151 H   0  0  0  0  0  0  0  0  0  0  0  0
    3.1419   -3.3038   -1.0668 H   0  0  0  0  0  0  0  0  0  0  0  0
    4.2600   -3.7554   -3.4099 H   0  0  0  0  0  0  0  0  0  0  0  0
    5.6057   -1.6430   -4.2683 H   0  0  0  0  0  0  0  0  0  0  0  0
  1  2  1  0
  1 19  1  0
  1 20  1  0
  2  3  1  0
  2 14  1  0
  2 21  1  1
  3  4  1  0
  3 22  1  0
  3 23  1  0
  4  5  1  0
  4 11  1  0
  5  6  1  0
  5 24  1  0
  5 25  1  0
  6  7  2  0
  6 10  1  0
  7  8  1  0
  7 26  1  0
  8  9  2  0
  8 27  1  0
  9 10  1  0
  9 28  1  0
 11 12  1  0
 11 13  1  0
 11 29  1  1
 12 13  1  0
 12 30  1  0
 12 31  1  0
 13 32  1  0
 13 33  1  0
 14 15  2  0
 14 18  1  0
 15 16  1  0
 15 34  1  0
 16 17  2  0
 16 35  1  0
 17 18  1  0
 17 36  1  0
M  END

