
     RDKit          3D

 37 38  0  0  0  0  0  0  0  0999 V2000
    0.9164   -0.1739    1.0353 C   0  0  0  0  0  0  0  0  0  0  0  0
    2.2234   -0.0718    0.4198 N   0  0  0  0  0  0  0  0  0  0  0  0
    3.0006    1.1142    0.7854 C   0  0  1  0  0  0  0  0  0  0  0  0
    4.5099    0.8457    0.6346 C   0  0  0  0  0  0  0  0  0  0  0  0
    4.9597    0.8326   -0.8306 C   0  0  0  0  0  0  0  0  0  0  0  0
    4.5447    2.1269   -1.5411 C   0  0  0  0  0  0  0  0  0  0  0  0
    3.0247    2.3822   -1.4817 C   0  0  1  0  0  0  0  0  0  0  0  0
    2.8452    3.4012   -1.8965 H   0  0  0  0  0  0  0  0  0  0  0  0
    2.2315    1.4078   -2.2710 N   0  0  0  0  0  0  0  0  0  0  0  0
    2.7647    1.1219   -3.6053 C   0  0  0  0  0  0  0  0  0  0  0  0
    1.9249    0.0656   -4.3218 C   0  0  0  0  0  0  0  0  0  0  0  0
    0.5443    0.5077   -4.4153 N   0  0  0  0  0  0  0  0  0  0  0  0
   -0.0113    0.7544   -3.0960 C   0  0  0  0  0  0  0  0  0  0  0  0
    0.8257    1.8105   -2.3798 C   0  0  0  0  0  0  0  0  0  0  0  0
    2.6079    2.3981    0.0094 C   0  0  0  0  0  0  0  0  0  0  0  0
    0.3968   -1.0698    0.6580 H   0  0  0  0  0  0  0  0  0  0  0  0
    0.2349    0.6925    0.8674 H   0  0  0  0  0  0  0  0  0  0  0  0
    1.0140   -0.2940    2.1287 H   0  0  0  0  0  0  0  0  0  0  0  0
    2.1393   -0.1026   -0.5971 H   0  0  0  0  0  0  0  0  0  0  0  0
    2.8056    1.3007    1.8567 H   0  0  0  0  0  0  0  0  0  0  0  0
    4.7464   -0.1113    1.1252 H   0  0  0  0  0  0  0  0  0  0  0  0
    5.0660    1.6369    1.1704 H   0  0  0  0  0  0  0  0  0  0  0  0
    4.5176   -0.0391   -1.3432 H   0  0  0  0  0  0  0  0  0  0  0  0
    6.0537    0.7049   -0.8911 H   0  0  0  0  0  0  0  0  0  0  0  0
    4.9168    2.1532   -2.5760 H   0  0  0  0  0  0  0  0  0  0  0  0
    5.0269    2.9821   -1.0361 H   0  0  0  0  0  0  0  0  0  0  0  0
    3.7905    0.7398   -3.5224 H   0  0  0  0  0  0  0  0  0  0  0  0
    2.7967    2.0412   -4.2337 H   0  0  0  0  0  0  0  0  0  0  0  0
    2.0363   -0.8965   -3.7706 H   0  0  0  0  0  0  0  0  0  0  0  0
    2.3315   -0.0860   -5.3352 H   0  0  0  0  0  0  0  0  0  0  0  0
   -0.0206   -0.1624   -4.9329 H   0  0  0  0  0  0  0  0  0  0  0  0
   -0.0435   -0.1598   -2.4595 H   0  0  0  0  0  0  0  0  0  0  0  0
   -1.0456    1.1232   -3.1943 H   0  0  0  0  0  0  0  0  0  0  0  0
    0.4072    1.9707   -1.3773 H   0  0  0  0  0  0  0  0  0  0  0  0
    0.7348    2.7724   -2.9338 H   0  0  0  0  0  0  0  0  0  0  0  0
    1.5301    2.5885    0.1241 H   0  0  0  0  0  0  0  0  0  0  0  0
    3.1076    3.2655    0.4748 H   0  0  0  0  0  0  0  0  0  0  0  0
  1  2  1  0
  1 16  1  0
  1 17  1  0
  1 18  1  0
  2  3  1  0
  2 19  1  0
  3  4  1  0
  3 15  1  0
  3 20  1  1
  4  5  1  0
  4 21  1  0
  4 22  1  0
  5  6  1  0
  5 23  1  0
  5 24  1  0
  6  7  1  0
  6 25  1  0
  6 26  1  0
  7  8  1  6
  7  9  1  0
  7 15  1  0
  9 10  1  0
  9 14  1  0
 10 11  1  0
 10 27  1  0
 10 28  1  0
 11 12  1  0
 11 29  1  0
 11 30  1  0
 12 13  1  0
 12 31  1  0
 13 14  1  0
 13 32  1  0
 13 33  1  0
 14 34  1  0
 14 35  1  0
 15 36  1  0
 15 37  1  0
M  END

