
     RDKit          3D

 39 45  0  0  0  0  0  0  0  0999 V2000
    1.0812   -1.2219   -1.8565 O   0  0  0  0  0  0  0  0  0  0  0  0
    2.2456   -1.4220   -1.6161 C   0  0  0  0  0  0  0  0  0  0  0  0
    3.0064   -0.2967   -1.3756 O   0  0  0  0  0  0  0  0  0  0  0  0
    4.3306   -0.3082   -1.0900 C   0  0  0  0  0  0  0  0  0  0  0  0
    4.9486    0.9221   -0.8753 C   0  0  0  0  0  0  0  0  0  0  0  0
    6.3120    0.9399   -0.5793 C   0  0  0  0  0  0  0  0  0  0  0  0
    7.0399   -0.2467   -0.5003 C   0  0  0  0  0  0  0  0  0  0  0  0
    6.4256   -1.4940   -0.7154 C   0  0  0  0  0  0  0  0  0  0  0  0
    7.1532   -2.7671   -0.6418 C   0  0  0  0  0  0  0  0  0  0  0  0
    8.5215   -2.8276   -0.3517 C   0  0  0  0  0  0  0  0  0  0  0  0
    9.2080   -4.0475   -0.2824 C   0  0  0  0  0  0  0  0  0  0  0  0
    8.5340   -5.2371   -0.5034 C   0  0  0  0  0  0  0  0  0  0  0  0
    7.1537   -5.2281   -0.8001 C   0  0  0  0  0  0  0  0  0  0  0  0
    6.4379   -6.4419   -1.0321 C   0  0  0  0  0  0  0  0  0  0  0  0
    5.1027   -6.4375   -1.3207 C   0  0  0  0  0  0  0  0  0  0  0  0
    4.3559   -5.2180   -1.4047 C   0  0  0  0  0  0  0  0  0  0  0  0
    2.9400   -5.2092   -1.7122 C   0  0  0  0  0  0  0  0  0  0  0  0
    2.2300   -6.4176   -1.9456 C   0  0  0  0  0  0  0  0  0  0  0  0
    0.8816   -6.4233   -2.2397 C   0  0  0  0  0  0  0  0  0  0  0  0
    0.1811   -5.2039   -2.3131 C   0  0  0  0  0  0  0  0  0  0  0  0
    0.8348   -4.0075   -2.0929 C   0  0  0  0  0  0  0  0  0  0  0  0
    2.2265   -3.9653   -1.7867 C   0  0  0  0  0  0  0  0  0  0  0  0
    2.9441   -2.7287   -1.5501 C   0  0  0  0  0  0  0  0  0  0  0  0
    4.3155   -2.7545   -1.2542 C   0  0  0  0  0  0  0  0  0  0  0  0
    5.0370   -1.5228   -1.0173 C   0  0  0  0  0  0  0  0  0  0  0  0
    5.0364   -3.9972   -1.1787 C   0  0  0  0  0  0  0  0  0  0  0  0
    6.4444   -3.9881   -0.8735 C   0  0  0  0  0  0  0  0  0  0  0  0
    4.3529    1.8334   -0.9440 H   0  0  0  0  0  0  0  0  0  0  0  0
    6.8149    1.8946   -0.4075 H   0  0  0  0  0  0  0  0  0  0  0  0
    8.1026   -0.1920   -0.2667 H   0  0  0  0  0  0  0  0  0  0  0  0
    9.0802   -1.9090   -0.1730 H   0  0  0  0  0  0  0  0  0  0  0  0
   10.2762   -4.0531   -0.0533 H   0  0  0  0  0  0  0  0  0  0  0  0
    9.0594   -6.1942   -0.4516 H   0  0  0  0  0  0  0  0  0  0  0  0
    6.9822   -7.3882   -0.9746 H   0  0  0  0  0  0  0  0  0  0  0  0
    4.6044   -7.3905   -1.4890 H   0  0  0  0  0  0  0  0  0  0  0  0
    2.7524   -7.3715   -1.8941 H   0  0  0  0  0  0  0  0  0  0  0  0
    0.3644   -7.3700   -2.4141 H   0  0  0  0  0  0  0  0  0  0  0  0
   -0.8868   -5.1985   -2.5456 H   0  0  0  0  0  0  0  0  0  0  0  0
    0.2893   -3.0709   -2.1507 H   0  0  0  0  0  0  0  0  0  0  0  0
  1  2  2  0
  2  3  1  0
  2 23  1  0
  3  4  1  0
  4  5  2  0
  4 25  1  0
  5  6  1  0
  5 28  1  0
  6  7  2  0
  6 29  1  0
  7  8  1  0
  7 30  1  0
  8  9  2  0
  8 25  1  0
  9 10  1  0
  9 27  1  0
 10 11  2  0
 10 31  1  0
 11 12  1  0
 11 32  1  0
 12 13  2  0
 12 33  1  0
 13 14  1  0
 13 27  1  0
 14 15  2  0
 14 34  1  0
 15 16  1  0
 15 35  1  0
 16 17  2  0
 16 26  1  0
 17 18  1  0
 17 22  1  0
 18 19  2  0
 18 36  1  0
 19 20  1  0
 19 37  1  0
 20 21  2  0
 20 38  1  0
 21 22  1  0
 21 39  1  0
 22 23  2  0
 23 24  1  0
 24 25  2  0
 24 26  1  0
 26 27  2  0
M  END

