
     RDKit          3D

 43 45  0  0  0  0  0  0  0  0999 V2000
    1.4980    0.5354    0.8825 O   0  0  0  0  0  0  0  0  0  0  0  0
    2.5665    0.1906    0.3814 C   0  0  0  0  0  0  0  0  0  0  0  0
    3.1605   -1.0871    0.8937 C   0  0  0  0  0  0  0  0  0  0  0  0
    2.5302   -1.8384    1.8757 C   0  0  0  0  0  0  0  0  0  0  0  0
    3.3461   -2.8972    2.0707 N   0  0  0  0  0  0  0  0  0  0  0  0
    3.1844   -4.0117    2.9837 C   0  0  1  0  0  0  0  0  0  0  0  0
    3.3142   -5.4504    2.4260 C   0  0  0  0  0  0  0  0  0  0  0  0
    4.0890   -5.8013    3.6315 N   0  0  0  0  0  0  0  0  0  0  0  0
    4.3631   -4.3802    3.9178 C   0  0  0  0  0  0  0  0  0  0  0  0
    4.4240   -2.8190    1.2640 N   0  0  0  0  0  0  0  0  0  0  0  0
    4.3140   -1.7382    0.5604 N   0  0  0  0  0  0  0  0  0  0  0  0
    3.1764    0.9286   -0.6000 N   0  0  0  0  0  0  0  0  0  0  0  0
    4.4755    0.6609   -1.2099 C   0  0  0  0  0  0  0  0  0  0  0  0
    5.5142    1.7587   -0.9447 C   0  0  0  0  0  0  0  0  0  0  0  0
    5.1836    3.1236   -1.5789 C   0  0  0  0  0  0  0  0  0  0  0  0
    4.2463    4.0009   -0.8739 N   0  0  0  0  0  0  0  0  0  0  0  0
    4.8715    4.9773    0.0185 C   0  0  0  0  0  0  0  0  0  0  0  0
    5.4309    6.1624   -0.7757 C   0  0  0  0  0  0  0  0  0  0  0  0
    4.4499    6.6740   -1.6401 O   0  0  0  0  0  0  0  0  0  0  0  0
    3.0251    3.4138   -0.3095 C   0  0  0  0  0  0  0  0  0  0  0  0
    2.4995    2.1584   -1.0122 C   0  0  0  0  0  0  0  0  0  0  0  0
    1.5982   -1.6769    2.4082 H   0  0  0  0  0  0  0  0  0  0  0  0
    2.2456   -3.8520    3.5292 H   0  0  0  0  0  0  0  0  0  0  0  0
    3.8870   -5.4510    1.4814 H   0  0  0  0  0  0  0  0  0  0  0  0
    2.3779   -6.0165    2.2846 H   0  0  0  0  0  0  0  0  0  0  0  0
    4.9069   -6.3877    3.4772 H   0  0  0  0  0  0  0  0  0  0  0  0
    5.3154   -3.9935    3.5132 H   0  0  0  0  0  0  0  0  0  0  0  0
    4.2705   -4.0852    4.9769 H   0  0  0  0  0  0  0  0  0  0  0  0
    4.3322    0.5680   -2.3041 H   0  0  0  0  0  0  0  0  0  0  0  0
    4.8472   -0.3022   -0.8474 H   0  0  0  0  0  0  0  0  0  0  0  0
    6.4680    1.4069   -1.3750 H   0  0  0  0  0  0  0  0  0  0  0  0
    5.6832    1.8639    0.1411 H   0  0  0  0  0  0  0  0  0  0  0  0
    4.8216    2.9421   -2.6083 H   0  0  0  0  0  0  0  0  0  0  0  0
    6.1166    3.6934   -1.7024 H   0  0  0  0  0  0  0  0  0  0  0  0
    5.6576    4.5323    0.6667 H   0  0  0  0  0  0  0  0  0  0  0  0
    4.0882    5.3637    0.6895 H   0  0  0  0  0  0  0  0  0  0  0  0
    6.3460    5.8561   -1.3287 H   0  0  0  0  0  0  0  0  0  0  0  0
    5.7407    6.9607   -0.0797 H   0  0  0  0  0  0  0  0  0  0  0  0
    3.9847    5.8804   -1.9601 H   0  0  0  0  0  0  0  0  0  0  0  0
    2.2323    4.1825   -0.3432 H   0  0  0  0  0  0  0  0  0  0  0  0
    3.1503    3.1526    0.7615 H   0  0  0  0  0  0  0  0  0  0  0  0
    2.5734    2.2576   -2.1077 H   0  0  0  0  0  0  0  0  0  0  0  0
    1.4412    2.0449   -0.7497 H   0  0  0  0  0  0  0  0  0  0  0  0
  1  2  2  0
  2  3  1  0
  2 12  1  0
  3  4  2  0
  3 11  1  0
  4  5  1  0
  4 22  1  0
  5  6  1  0
  5 10  1  0
  6  7  1  0
  6  9  1  0
  6 23  1  1
  7  8  1  0
  7 24  1  0
  7 25  1  0
  8  9  1  0
  8 26  1  0
  9 27  1  0
  9 28  1  0
 10 11  2  0
 12 13  1  0
 12 21  1  0
 13 14  1  0
 13 29  1  0
 13 30  1  0
 14 15  1  0
 14 31  1  0
 14 32  1  0
 15 16  1  0
 15 33  1  0
 15 34  1  0
 16 17  1  0
 16 20  1  0
 17 18  1  0
 17 35  1  0
 17 36  1  0
 18 19  1  0
 18 37  1  0
 18 38  1  0
 19 39  1  0
 20 21  1  0
 20 40  1  0
 20 41  1  0
 21 42  1  0
 21 43  1  0
M  END

