
     RDKit          3D

 41 41  0  0  0  0  0  0  0  0999 V2000
    4.5674    0.0263   -2.9981 C   0  0  0  0  0  0  0  0  0  0  0  0
    4.1573    0.8559   -1.7802 C   0  0  0  0  0  0  0  0  0  0  0  0
    2.7218    0.8005   -1.4799 N   0  0  0  0  0  0  0  0  0  0  0  0
    1.9087    1.5931   -2.2465 C   0  0  0  0  0  0  0  0  0  0  0  0
    2.3561    2.2859   -3.1557 O   0  0  0  0  0  0  0  0  0  0  0  0
    0.4153    1.5550   -1.9870 C   0  0  0  0  0  0  0  0  0  0  0  0
   -0.3408    0.6161   -2.6937 C   0  0  0  0  0  0  0  0  0  0  0  0
   -1.7365    0.5192   -2.5366 C   0  0  0  0  0  0  0  0  0  0  0  0
   -2.4652   -0.4643   -3.1996 N   0  0  0  0  0  0  0  0  0  0  0  0
   -2.3529    1.4077   -1.6390 C   0  0  0  0  0  0  0  0  0  0  0  0
   -1.6041    2.3663   -0.9561 C   0  0  0  0  0  0  0  0  0  0  0  0
   -0.2120    2.4742   -1.1146 C   0  0  0  0  0  0  0  0  0  0  0  0
    0.5694    3.4460   -0.4209 N   0  0  0  0  0  0  0  0  0  0  0  0
    0.0591    3.8899    0.8618 C   0  0  0  0  0  0  0  0  0  0  0  0
    1.0402    4.5634   -1.2399 C   0  0  0  0  0  0  0  0  0  0  0  0
    2.2565    0.0538   -0.2985 C   0  0  1  0  0  0  0  0  0  0  0  0
    2.6427   -1.4287   -0.3637 C   0  0  0  0  0  0  0  0  0  0  0  0
    2.7090    0.7192    1.0097 C   0  0  0  0  0  0  0  0  0  0  0  0
    5.6523    0.1169   -3.1711 H   0  0  0  0  0  0  0  0  0  0  0  0
    4.0487    0.3914   -3.8960 H   0  0  0  0  0  0  0  0  0  0  0  0
    4.3324   -1.0410   -2.8626 H   0  0  0  0  0  0  0  0  0  0  0  0
    4.4277    1.9084   -1.9556 H   0  0  0  0  0  0  0  0  0  0  0  0
    4.7047    0.5198   -0.8876 H   0  0  0  0  0  0  0  0  0  0  0  0
    0.1706   -0.0744   -3.3712 H   0  0  0  0  0  0  0  0  0  0  0  0
   -2.0484   -0.8224   -4.0518 H   0  0  0  0  0  0  0  0  0  0  0  0
   -3.4567   -0.2807   -3.3059 H   0  0  0  0  0  0  0  0  0  0  0  0
   -3.4341    1.3537   -1.4812 H   0  0  0  0  0  0  0  0  0  0  0  0
   -2.1255    3.0532   -0.2873 H   0  0  0  0  0  0  0  0  0  0  0  0
   -0.2413    3.0277    1.4759 H   0  0  0  0  0  0  0  0  0  0  0  0
   -0.8105    4.5803    0.7864 H   0  0  0  0  0  0  0  0  0  0  0  0
    0.8531    4.4334    1.3998 H   0  0  0  0  0  0  0  0  0  0  0  0
    1.4546    4.1977   -2.1873 H   0  0  0  0  0  0  0  0  0  0  0  0
    1.8340    5.1068   -0.7013 H   0  0  0  0  0  0  0  0  0  0  0  0
    0.2253    5.2861   -1.4653 H   0  0  0  0  0  0  0  0  0  0  0  0
    1.1604    0.1074   -0.3294 H   0  0  0  0  0  0  0  0  0  0  0  0
    3.7342   -1.5751   -0.3235 H   0  0  0  0  0  0  0  0  0  0  0  0
    2.2671   -1.8944   -1.2878 H   0  0  0  0  0  0  0  0  0  0  0  0
    2.2076   -1.9688    0.4921 H   0  0  0  0  0  0  0  0  0  0  0  0
    3.8025    0.6716    1.1417 H   0  0  0  0  0  0  0  0  0  0  0  0
    2.2514    0.2118    1.8741 H   0  0  0  0  0  0  0  0  0  0  0  0
    2.4009    1.7749    1.0191 H   0  0  0  0  0  0  0  0  0  0  0  0
  1  2  1  0
  1 19  1  0
  1 20  1  0
  1 21  1  0
  2  3  1  0
  2 22  1  0
  2 23  1  0
  3  4  1  0
  3 16  1  0
  4  5  2  0
  4  6  1  0
  6  7  2  0
  6 12  1  0
  7  8  1  0
  7 24  1  0
  8  9  1  0
  8 10  2  0
  9 25  1  0
  9 26  1  0
 10 11  1  0
 10 27  1  0
 11 12  2  0
 11 28  1  0
 12 13  1  0
 13 14  1  0
 13 15  1  0
 14 29  1  0
 14 30  1  0
 14 31  1  0
 15 32  1  0
 15 33  1  0
 15 34  1  0
 16 17  1  0
 16 18  1  0
 16 35  1  1
 17 36  1  0
 17 37  1  0
 17 38  1  0
 18 39  1  0
 18 40  1  0
 18 41  1  0
M  END

