
     RDKit          3D

 52 53  0  0  0  0  0  0  0  0999 V2000
    1.7527    3.6511    7.8402 C   0  0  0  0  0  0  0  0  0  0  0  0
    3.1325    3.9631    7.2600 C   0  0  0  0  0  0  0  0  0  0  0  0
    3.4107    3.2132    5.9518 C   0  0  0  0  0  0  0  0  0  0  0  0
    4.7900    3.5340    5.3791 C   0  0  0  0  0  0  0  0  0  0  0  0
    5.0809    2.6345    3.8362 S   0  0  1  0  0  0  0  0  0  0  0  0
    5.1460    1.2025    4.1604 O   0  0  0  0  0  0  0  0  0  0  0  0
    4.1412    3.1479    2.8335 O   0  0  0  0  0  0  0  0  0  0  0  0
    6.6290    3.1438    3.3678 N   0  0  0  0  0  0  0  0  0  0  0  0
    7.7080    2.1511    3.2380 C   0  0  1  0  0  0  0  0  0  0  0  0
    7.5838    1.3213    1.9523 C   0  0  0  0  0  0  0  0  0  0  0  0
    9.1237    2.7762    3.4213 C   0  0  1  0  0  0  0  0  0  0  0  0
    9.6084    3.7437    2.2912 C   0  0  0  0  0  0  0  0  0  0  0  0
    8.8844    5.0566    2.0667 C   0  0  0  0  0  0  0  0  0  0  0  0
    9.1935    6.2013    2.8209 C   0  0  0  0  0  0  0  0  0  0  0  0
    8.5341    7.4146    2.6121 C   0  0  0  0  0  0  0  0  0  0  0  0
    7.5484    7.5007    1.6250 C   0  0  0  0  0  0  0  0  0  0  0  0
    6.7177    9.0139    1.3562 Cl  0  0  0  0  0  0  0  0  0  0  0  0
    7.2346    6.3874    0.8409 C   0  0  0  0  0  0  0  0  0  0  0  0
    7.9072    5.1831    1.0636 C   0  0  0  0  0  0  0  0  0  0  0  0
    9.3825    3.2982    4.8291 C   0  0  0  0  0  0  0  0  0  0  0  0
   10.4526    2.7666    5.5714 C   0  0  0  0  0  0  0  0  0  0  0  0
   10.7397    3.2075    6.8665 C   0  0  0  0  0  0  0  0  0  0  0  0
    9.9574    4.1949    7.4615 C   0  0  0  0  0  0  0  0  0  0  0  0
    8.8822    4.7412    6.7377 C   0  0  0  0  0  0  0  0  0  0  0  0
    8.0508    5.7534    7.3306 C   0  0  0  0  0  0  0  0  0  0  0  0
    7.3693    6.5654    7.8050 N   0  0  0  0  0  0  0  0  0  0  0  0
    8.6039    4.2982    5.4310 C   0  0  0  0  0  0  0  0  0  0  0  0
    1.5789    4.2017    8.7780 H   0  0  0  0  0  0  0  0  0  0  0  0
    1.6437    2.5756    8.0582 H   0  0  0  0  0  0  0  0  0  0  0  0
    0.9506    3.9280    7.1361 H   0  0  0  0  0  0  0  0  0  0  0  0
    3.9130    3.7100    7.9997 H   0  0  0  0  0  0  0  0  0  0  0  0
    3.2258    5.0498    7.0857 H   0  0  0  0  0  0  0  0  0  0  0  0
    2.6462    3.4690    5.1992 H   0  0  0  0  0  0  0  0  0  0  0  0
    3.3392    2.1250    6.1170 H   0  0  0  0  0  0  0  0  0  0  0  0
    5.6046    3.2408    6.0583 H   0  0  0  0  0  0  0  0  0  0  0  0
    4.9005    4.6005    5.1304 H   0  0  0  0  0  0  0  0  0  0  0  0
    6.5253    3.7787    2.5759 H   0  0  0  0  0  0  0  0  0  0  0  0
    7.5708    1.4610    4.0841 H   0  0  0  0  0  0  0  0  0  0  0  0
    7.6051    1.9505    1.0487 H   0  0  0  0  0  0  0  0  0  0  0  0
    6.6305    0.7743    1.9643 H   0  0  0  0  0  0  0  0  0  0  0  0
    8.3993    0.5846    1.8720 H   0  0  0  0  0  0  0  0  0  0  0  0
    9.7946    1.9081    3.3128 H   0  0  0  0  0  0  0  0  0  0  0  0
    9.6008    3.1753    1.3481 H   0  0  0  0  0  0  0  0  0  0  0  0
   10.6680    3.9604    2.5024 H   0  0  0  0  0  0  0  0  0  0  0  0
    9.9727    6.1505    3.5850 H   0  0  0  0  0  0  0  0  0  0  0  0
    8.7840    8.2944    3.2074 H   0  0  0  0  0  0  0  0  0  0  0  0
    6.4779    6.4681    0.0589 H   0  0  0  0  0  0  0  0  0  0  0  0
    7.6713    4.3273    0.4243 H   0  0  0  0  0  0  0  0  0  0  0  0
   11.0740    1.9844    5.1258 H   0  0  0  0  0  0  0  0  0  0  0  0
   11.5773    2.7719    7.4163 H   0  0  0  0  0  0  0  0  0  0  0  0
   10.1666    4.5439    8.4743 H   0  0  0  0  0  0  0  0  0  0  0  0
    7.7664    4.7318    4.8899 H   0  0  0  0  0  0  0  0  0  0  0  0
  1  2  1  0
  1 28  1  0
  1 29  1  0
  1 30  1  0
  2  3  1  0
  2 31  1  0
  2 32  1  0
  3  4  1  0
  3 33  1  0
  3 34  1  0
  4  5  1  0
  4 35  1  0
  4 36  1  0
  5  6  2  0
  5  7  2  0
  5  8  1  6
  8  9  1  0
  8 37  1  0
  9 10  1  0
  9 11  1  0
  9 38  1  1
 10 39  1  0
 10 40  1  0
 10 41  1  0
 11 12  1  0
 11 20  1  0
 11 42  1  1
 12 13  1  0
 12 43  1  0
 12 44  1  0
 13 14  2  0
 13 19  1  0
 14 15  1  0
 14 45  1  0
 15 16  2  0
 15 46  1  0
 16 17  1  0
 16 18  1  0
 18 19  2  0
 18 47  1  0
 19 48  1  0
 20 21  2  0
 20 27  1  0
 21 22  1  0
 21 49  1  0
 22 23  2  0
 22 50  1  0
 23 24  1  0
 23 51  1  0
 24 25  1  0
 24 27  2  0
 25 26  3  0
 27 52  1  0
M  END

