
     RDKit          3D

 42 43  0  0  0  0  0  0  0  0999 V2000
    1.5073    3.7824    3.7005 C   0  0  0  0  0  0  0  0  0  0  0  0
    3.0116    3.8002    3.4211 C   0  0  0  0  0  0  0  0  0  0  0  0
    3.4018    3.7462    1.9290 C   0  0  1  0  0  0  0  0  0  0  0  0
    2.9496    4.9815    1.1327 C   0  0  0  0  0  0  0  0  0  0  0  0
    3.2066    4.8858   -0.3715 C   0  0  0  0  0  0  0  0  0  0  0  0
    4.8382    3.5491    1.7742 N   0  0  0  0  0  0  0  0  0  0  0  0
    5.4098    2.3109    1.5999 C   0  0  0  0  0  0  0  0  0  0  0  0
    4.7117    1.2901    1.4987 O   0  0  0  0  0  0  0  0  0  0  0  0
    6.8597    2.2354    1.5244 C   0  0  0  0  0  0  0  0  0  0  0  0
    8.0095    3.5798    1.6453 S   0  0  0  0  0  0  0  0  0  0  0  0
    9.3249    2.4100    1.4901 C   0  0  0  0  0  0  0  0  0  0  0  0
   10.6282    2.8088    1.4706 N   0  0  0  0  0  0  0  0  0  0  0  0
   11.6880    1.8063    1.5778 C   0  0  0  0  0  0  0  0  0  0  0  0
   12.9223    2.2795    0.8179 C   0  0  0  0  0  0  0  0  0  0  0  0
   13.3222    3.5702    1.2369 O   0  0  0  0  0  0  0  0  0  0  0  0
   12.3068    4.5228    1.0144 C   0  0  0  0  0  0  0  0  0  0  0  0
   11.0289    4.1740    1.7788 C   0  0  0  0  0  0  0  0  0  0  0  0
    8.9481    1.1626    1.3766 N   0  0  0  0  0  0  0  0  0  0  0  0
    7.5831    1.0450    1.3834 C   0  0  0  0  0  0  0  0  0  0  0  0
    7.0191   -0.1736    1.2501 N   0  0  0  0  0  0  0  0  0  0  0  0
    1.3103    3.7239    4.7828 H   0  0  0  0  0  0  0  0  0  0  0  0
    1.0264    2.9085    3.2299 H   0  0  0  0  0  0  0  0  0  0  0  0
    0.9978    4.6846    3.3263 H   0  0  0  0  0  0  0  0  0  0  0  0
    3.4788    2.9291    3.9089 H   0  0  0  0  0  0  0  0  0  0  0  0
    3.4700    4.6961    3.8811 H   0  0  0  0  0  0  0  0  0  0  0  0
    2.9406    2.8459    1.4923 H   0  0  0  0  0  0  0  0  0  0  0  0
    3.4542    5.8765    1.5465 H   0  0  0  0  0  0  0  0  0  0  0  0
    1.8737    5.1397    1.3111 H   0  0  0  0  0  0  0  0  0  0  0  0
    4.2765    4.7399   -0.5862 H   0  0  0  0  0  0  0  0  0  0  0  0
    2.8766    5.7990   -0.8920 H   0  0  0  0  0  0  0  0  0  0  0  0
    2.6646    4.0333   -0.8128 H   0  0  0  0  0  0  0  0  0  0  0  0
    5.4407    4.3405    1.9701 H   0  0  0  0  0  0  0  0  0  0  0  0
   11.3087    0.8583    1.1759 H   0  0  0  0  0  0  0  0  0  0  0  0
   11.9472    1.6464    2.6433 H   0  0  0  0  0  0  0  0  0  0  0  0
   12.7122    2.2786   -0.2714 H   0  0  0  0  0  0  0  0  0  0  0  0
   13.7679    1.6016    1.0080 H   0  0  0  0  0  0  0  0  0  0  0  0
   12.0750    4.5938   -0.0685 H   0  0  0  0  0  0  0  0  0  0  0  0
   12.6932    5.4969    1.3505 H   0  0  0  0  0  0  0  0  0  0  0  0
   10.2291    4.8698    1.4832 H   0  0  0  0  0  0  0  0  0  0  0  0
   11.1995    4.2934    2.8677 H   0  0  0  0  0  0  0  0  0  0  0  0
    7.6079   -0.9933    1.2410 H   0  0  0  0  0  0  0  0  0  0  0  0
    6.0026   -0.2098    1.3058 H   0  0  0  0  0  0  0  0  0  0  0  0
  1  2  1  0
  1 21  1  0
  1 22  1  0
  1 23  1  0
  2  3  1  0
  2 24  1  0
  2 25  1  0
  3  4  1  0
  3  6  1  0
  3 26  1  6
  4  5  1  0
  4 27  1  0
  4 28  1  0
  5 29  1  0
  5 30  1  0
  5 31  1  0
  6  7  1  0
  6 32  1  0
  7  8  2  0
  7  9  1  0
  9 10  1  0
  9 19  2  0
 10 11  1  0
 11 12  1  0
 11 18  2  0
 12 13  1  0
 12 17  1  0
 13 14  1  0
 13 33  1  0
 13 34  1  0
 14 15  1  0
 14 35  1  0
 14 36  1  0
 15 16  1  0
 16 17  1  0
 16 37  1  0
 16 38  1  0
 17 39  1  0
 17 40  1  0
 18 19  1  0
 19 20  1  0
 20 41  1  0
 20 42  1  0
M  END

