
     RDKit          3D

 60 64  0  0  0  0  0  0  0  0999 V2000
    1.0072   -0.7041   -0.1477 O   0  0  0  0  0  0  0  0  0  0  0  0
    1.8390    0.1212   -0.5757 C   0  0  0  0  0  0  0  0  0  0  0  0
    3.2035   -0.3830   -0.8973 C   0  0  0  0  0  0  0  0  0  0  0  0
    4.2390    0.3353   -1.4333 N   0  0  0  0  0  0  0  0  0  0  0  0
    5.3215   -0.2892   -1.6282 N   0  0  0  0  0  0  0  0  0  0  0  0
    5.1884   -1.9668   -1.1484 S   0  0  0  0  0  0  0  0  0  0  0  0
    3.5562   -1.7255   -0.6601 C   0  0  0  0  0  0  0  0  0  0  0  0
    2.7248   -2.6664   -0.1394 N   0  0  0  0  0  0  0  0  0  0  0  0
    3.1154   -3.9803    0.1051 C   0  0  0  0  0  0  0  0  0  0  0  0
    4.2278   -4.3626   -0.2184 O   0  0  0  0  0  0  0  0  0  0  0  0
    2.1490   -4.7770    0.7070 N   0  0  0  0  0  0  0  0  0  0  0  0
    1.3871   -4.1764    1.8248 C   0  0  0  0  0  0  0  0  0  0  0  0
    0.1791   -5.0075    2.2370 C   0  0  0  0  0  0  0  0  0  0  0  0
    0.6051   -6.4361    2.5640 C   0  0  0  0  0  0  0  0  0  0  0  0
    1.3041   -7.0354    1.3465 C   0  0  0  0  0  0  0  0  0  0  0  0
    2.5100   -6.2093    0.8455 C   0  0  1  0  0  0  0  0  0  0  0  0
    3.3277   -6.2994    1.5875 H   0  0  0  0  0  0  0  0  0  0  0  0
    2.9964   -6.8167   -0.4600 C   0  0  0  0  0  0  0  0  0  0  0  0
    2.2969   -6.6606   -1.6625 C   0  0  0  0  0  0  0  0  0  0  0  0
    2.7572   -7.3123   -2.8067 C   0  0  0  0  0  0  0  0  0  0  0  0
    3.8998   -8.1121   -2.7060 C   0  0  0  0  0  0  0  0  0  0  0  0
    4.5741   -8.2758   -1.5659 N   0  0  0  0  0  0  0  0  0  0  0  0
    4.1315   -7.6397   -0.4817 C   0  0  0  0  0  0  0  0  0  0  0  0
    1.4856    1.4278   -0.7357 N   0  0  0  0  0  0  0  0  0  0  0  0
    2.3116    2.5568   -1.1711 C   0  0  0  0  0  0  0  0  0  0  0  0
    1.6623    3.2642   -2.3574 C   0  0  0  0  0  0  0  0  0  0  0  0
    0.2819    3.6431   -2.0673 N   0  0  0  0  0  0  0  0  0  0  0  0
   -0.2585    4.7800   -2.6538 C   0  0  0  0  0  0  0  0  0  0  0  0
   -1.6564    5.0219   -2.7151 C   0  0  0  0  0  0  0  0  0  0  0  0
   -2.1042    6.2132   -3.2745 C   0  0  0  0  0  0  0  0  0  0  0  0
   -1.1848    7.1407   -3.7770 C   0  0  0  0  0  0  0  0  0  0  0  0
    0.1656    6.8003   -3.6944 C   0  0  0  0  0  0  0  0  0  0  0  0
    0.6145    5.6672   -3.1582 N   0  0  0  0  0  0  0  0  0  0  0  0
   -0.5447    2.5528   -1.5815 C   0  0  0  0  0  0  0  0  0  0  0  0
    0.1227    1.8344   -0.4047 C   0  0  0  0  0  0  0  0  0  0  0  0
    1.7718   -2.2895   -0.0123 H   0  0  0  0  0  0  0  0  0  0  0  0
    1.0609   -3.1670    1.5455 H   0  0  0  0  0  0  0  0  0  0  0  0
    2.0581   -4.0602    2.7009 H   0  0  0  0  0  0  0  0  0  0  0  0
   -0.5606   -5.0147    1.4175 H   0  0  0  0  0  0  0  0  0  0  0  0
   -0.3004   -4.5201    3.1014 H   0  0  0  0  0  0  0  0  0  0  0  0
   -0.2628   -7.0539    2.8457 H   0  0  0  0  0  0  0  0  0  0  0  0
    1.2873   -6.4319    3.4336 H   0  0  0  0  0  0  0  0  0  0  0  0
    0.5762   -7.1241    0.5222 H   0  0  0  0  0  0  0  0  0  0  0  0
    1.6662   -8.0547    1.5523 H   0  0  0  0  0  0  0  0  0  0  0  0
    1.4087   -6.0239   -1.7042 H   0  0  0  0  0  0  0  0  0  0  0  0
    2.2401   -7.2045   -3.7632 H   0  0  0  0  0  0  0  0  0  0  0  0
    4.2855   -8.6403   -3.5862 H   0  0  0  0  0  0  0  0  0  0  0  0
    4.7155   -7.7767    0.4376 H   0  0  0  0  0  0  0  0  0  0  0  0
    3.3110    2.2059   -1.4430 H   0  0  0  0  0  0  0  0  0  0  0  0
    2.4015    3.2645   -0.3263 H   0  0  0  0  0  0  0  0  0  0  0  0
    1.6962    2.5913   -3.2395 H   0  0  0  0  0  0  0  0  0  0  0  0
    2.2193    4.1732   -2.6101 H   0  0  0  0  0  0  0  0  0  0  0  0
   -2.3811    4.2968   -2.3481 H   0  0  0  0  0  0  0  0  0  0  0  0
   -3.1783    6.4119   -3.3268 H   0  0  0  0  0  0  0  0  0  0  0  0
   -1.5020    8.0833   -4.2262 H   0  0  0  0  0  0  0  0  0  0  0  0
    0.9313    7.4813   -4.0867 H   0  0  0  0  0  0  0  0  0  0  0  0
   -0.7554    1.8189   -2.3882 H   0  0  0  0  0  0  0  0  0  0  0  0
   -1.5091    2.9384   -1.2273 H   0  0  0  0  0  0  0  0  0  0  0  0
   -0.4486    0.9432   -0.1235 H   0  0  0  0  0  0  0  0  0  0  0  0
    0.1586    2.5199    0.4621 H   0  0  0  0  0  0  0  0  0  0  0  0
  1  2  2  0
  2  3  1  0
  2 24  1  0
  3  4  1  0
  3  7  2  0
  4  5  2  0
  5  6  1  0
  6  7  1  0
  7  8  1  0
  8  9  1  0
  8 36  1  0
  9 10  2  0
  9 11  1  0
 11 12  1  0
 11 16  1  0
 12 13  1  0
 12 37  1  0
 12 38  1  0
 13 14  1  0
 13 39  1  0
 13 40  1  0
 14 15  1  0
 14 41  1  0
 14 42  1  0
 15 16  1  0
 15 43  1  0
 15 44  1  0
 16 17  1  1
 16 18  1  0
 18 19  2  0
 18 23  1  0
 19 20  1  0
 19 45  1  0
 20 21  2  0
 20 46  1  0
 21 22  1  0
 21 47  1  0
 22 23  2  0
 23 48  1  0
 24 25  1  0
 24 35  1  0
 25 26  1  0
 25 49  1  0
 25 50  1  0
 26 27  1  0
 26 51  1  0
 26 52  1  0
 27 28  1  0
 27 34  1  0
 28 29  2  0
 28 33  1  0
 29 30  1  0
 29 53  1  0
 30 31  2  0
 30 54  1  0
 31 32  1  0
 31 55  1  0
 32 33  2  0
 32 56  1  0
 34 35  1  0
 34 57  1  0
 34 58  1  0
 35 59  1  0
 35 60  1  0
M  END

