
     RDKit          3D

 49 51  0  0  0  0  0  0  0  0999 V2000
    3.4830    1.6502   -0.4111 O   0  0  0  0  0  0  0  0  0  0  0  0
    2.8759    0.6257   -0.6616 C   0  0  0  0  0  0  0  0  0  0  0  0
    3.4453   -0.4211   -1.6335 C   0  0  0  0  0  0  0  0  0  0  0  0
    2.4578   -1.3659   -2.1430 N   0  0  0  0  0  0  0  0  0  0  0  0
    1.7333   -0.8043   -3.2978 C   0  0  0  0  0  0  0  0  0  0  0  0
    0.4115   -1.4636   -3.5891 C   0  0  0  0  0  0  0  0  0  0  0  0
   -0.7777   -1.3186   -2.9102 C   0  0  0  0  0  0  0  0  0  0  0  0
   -1.8431   -2.0927   -3.4601 C   0  0  0  0  0  0  0  0  0  0  0  0
   -1.4550   -2.8187   -4.5586 C   0  0  0  0  0  0  0  0  0  0  0  0
    0.2126   -2.5613   -4.9285 S   0  0  0  0  0  0  0  0  0  0  0  0
    2.9834   -2.7107   -2.3864 C   0  0  0  0  0  0  0  0  0  0  0  0
    3.2233   -3.5209   -1.1108 C   0  0  1  0  0  0  0  0  0  0  0  0
    1.9687   -3.8502   -0.2867 C   0  0  0  0  0  0  0  0  0  0  0  0
    2.3240   -5.2197    0.3060 C   0  0  0  0  0  0  0  0  0  0  0  0
    3.1187   -5.8536   -0.8387 C   0  0  0  0  0  0  0  0  0  0  0  0
    3.7824   -4.7782   -1.4957 O   0  0  0  0  0  0  0  0  0  0  0  0
    1.6825    0.2408   -0.1073 N   0  0  0  0  0  0  0  0  0  0  0  0
    0.8941    0.8940    0.8507 C   0  0  0  0  0  0  0  0  0  0  0  0
    1.2407    2.1401    1.4067 C   0  0  0  0  0  0  0  0  0  0  0  0
    0.4067    2.7324    2.3558 C   0  0  0  0  0  0  0  0  0  0  0  0
   -0.7665    2.0936    2.7542 C   0  0  0  0  0  0  0  0  0  0  0  0
   -1.5636    2.6694    3.7505 O   0  0  0  0  0  0  0  0  0  0  0  0
   -2.5748    3.4796    3.3729 C   0  0  1  0  0  0  0  0  0  0  0  0
   -2.1462    4.5412    2.6730 F   0  0  0  0  0  0  0  0  0  0  0  0
   -3.4786    2.8456    2.6069 F   0  0  0  0  0  0  0  0  0  0  0  0
   -3.1832    3.9132    4.4692 F   0  0  0  0  0  0  0  0  0  0  0  0
   -1.1221    0.8562    2.2176 C   0  0  0  0  0  0  0  0  0  0  0  0
   -0.2926    0.2617    1.2694 C   0  0  0  0  0  0  0  0  0  0  0  0
    4.2223   -0.9618   -1.0707 H   0  0  0  0  0  0  0  0  0  0  0  0
    3.9794    0.1365   -2.4278 H   0  0  0  0  0  0  0  0  0  0  0  0
    2.3702   -0.8184   -4.2075 H   0  0  0  0  0  0  0  0  0  0  0  0
    1.5397    0.2575   -3.0780 H   0  0  0  0  0  0  0  0  0  0  0  0
   -0.8907   -0.6580   -2.0481 H   0  0  0  0  0  0  0  0  0  0  0  0
   -2.8597   -2.1013   -3.0637 H   0  0  0  0  0  0  0  0  0  0  0  0
   -2.0585   -3.4815   -5.1773 H   0  0  0  0  0  0  0  0  0  0  0  0
    3.9252   -2.6869   -2.9739 H   0  0  0  0  0  0  0  0  0  0  0  0
    2.2513   -3.2662   -2.9901 H   0  0  0  0  0  0  0  0  0  0  0  0
    3.9601   -2.9991   -0.4670 H   0  0  0  0  0  0  0  0  0  0  0  0
    1.0897   -3.9275   -0.9488 H   0  0  0  0  0  0  0  0  0  0  0  0
    1.7496   -3.0898    0.4770 H   0  0  0  0  0  0  0  0  0  0  0  0
    1.4449   -5.8124    0.6009 H   0  0  0  0  0  0  0  0  0  0  0  0
    2.9632   -5.0983    1.1961 H   0  0  0  0  0  0  0  0  0  0  0  0
    2.4463   -6.3739   -1.5491 H   0  0  0  0  0  0  0  0  0  0  0  0
    3.8713   -6.5826   -0.4955 H   0  0  0  0  0  0  0  0  0  0  0  0
    1.3511   -0.6502   -0.4805 H   0  0  0  0  0  0  0  0  0  0  0  0
    2.1602    2.6259    1.0876 H   0  0  0  0  0  0  0  0  0  0  0  0
    0.6672    3.6966    2.7957 H   0  0  0  0  0  0  0  0  0  0  0  0
   -2.0393    0.3663    2.5475 H   0  0  0  0  0  0  0  0  0  0  0  0
   -0.5644   -0.7109    0.8497 H   0  0  0  0  0  0  0  0  0  0  0  0
  1  2  2  0
  2  3  1  0
  2 17  1  0
  3  4  1  0
  3 29  1  0
  3 30  1  0
  4  5  1  0
  4 11  1  0
  5  6  1  0
  5 31  1  0
  5 32  1  0
  6  7  2  0
  6 10  1  0
  7  8  1  0
  7 33  1  0
  8  9  2  0
  8 34  1  0
  9 10  1  0
  9 35  1  0
 11 12  1  0
 11 36  1  0
 11 37  1  0
 12 13  1  0
 12 16  1  0
 12 38  1  1
 13 14  1  0
 13 39  1  0
 13 40  1  0
 14 15  1  0
 14 41  1  0
 14 42  1  0
 15 16  1  0
 15 43  1  0
 15 44  1  0
 17 18  1  0
 17 45  1  0
 18 19  2  0
 18 28  1  0
 19 20  1  0
 19 46  1  0
 20 21  2  0
 20 47  1  0
 21 22  1  0
 21 27  1  0
 22 23  1  0
 23 24  1  6
 23 25  1  0
 23 26  1  0
 27 28  2  0
 27 48  1  0
 28 49  1  0
M  END

