
     RDKit          3D

 38 40  0  0  0  0  0  0  0  0999 V2000
    3.5241   -1.0722   -3.1207 C   0  0  0  0  0  0  0  0  0  0  0  0
    3.0790   -2.1400   -2.1349 C   0  0  0  0  0  0  0  0  0  0  0  0
    3.1219   -1.6056   -0.3966 S   0  0  1  0  0  0  0  0  0  0  0  0
    2.5602   -0.2518   -0.3083 O   0  0  0  0  0  0  0  0  0  0  0  0
    2.5221   -2.7125    0.3885 O   0  0  0  0  0  0  0  0  0  0  0  0
    4.8713   -1.5191    0.0331 C   0  0  0  0  0  0  0  0  0  0  0  0
    5.4969   -0.2741   -0.0983 C   0  0  0  0  0  0  0  0  0  0  0  0
    6.8693   -0.1377    0.0903 C   0  0  0  0  0  0  0  0  0  0  0  0
    7.6104   -1.2808    0.4121 C   0  0  0  0  0  0  0  0  0  0  0  0
    9.3344   -1.1502    0.6318 Cl  0  0  0  0  0  0  0  0  0  0  0  0
    7.0024   -2.5233    0.5851 C   0  0  0  0  0  0  0  0  0  0  0  0
    5.6133   -2.6625    0.4179 C   0  0  0  0  0  0  0  0  0  0  0  0
    4.9804   -3.8765    0.7042 N   0  0  0  0  0  0  0  0  0  0  0  0
    5.6274   -5.0598    0.3983 N   0  0  0  0  0  0  0  0  0  0  0  0
    6.1115   -5.8353    1.4353 C   0  0  0  0  0  0  0  0  0  0  0  0
    6.7081   -6.9671    1.3053 N   0  0  0  0  0  0  0  0  0  0  0  0
    6.8762   -7.4611    0.0292 C   0  0  0  0  0  0  0  0  0  0  0  0
    7.5152   -8.6407   -0.0868 N   0  0  0  0  0  0  0  0  0  0  0  0
    7.6912   -9.1522   -1.2882 C   0  0  0  0  0  0  0  0  0  0  0  0
    7.2423   -8.5335   -2.4880 C   0  0  0  0  0  0  0  0  0  0  0  0
    7.4735   -9.1594   -3.7567 C   0  0  0  0  0  0  0  0  0  0  0  0
    7.6661   -9.6746   -4.7790 N   0  0  0  0  0  0  0  0  0  0  0  0
    6.5783   -7.3111   -2.3833 C   0  0  0  0  0  0  0  0  0  0  0  0
    6.3929   -6.7613   -1.1093 C   0  0  0  0  0  0  0  0  0  0  0  0
    5.6958   -5.4758   -0.9535 C   0  0  0  0  0  0  0  0  0  0  0  0
    5.2198   -4.8068   -1.8489 O   0  0  0  0  0  0  0  0  0  0  0  0
    3.3863   -1.4426   -4.1483 H   0  0  0  0  0  0  0  0  0  0  0  0
    4.5893   -0.8230   -2.9976 H   0  0  0  0  0  0  0  0  0  0  0  0
    2.9307   -0.1545   -2.9991 H   0  0  0  0  0  0  0  0  0  0  0  0
    3.6820   -3.0601   -2.1755 H   0  0  0  0  0  0  0  0  0  0  0  0
    2.0166   -2.4098   -2.2524 H   0  0  0  0  0  0  0  0  0  0  0  0
    4.8825    0.5902   -0.3582 H   0  0  0  0  0  0  0  0  0  0  0  0
    7.3624    0.8288   -0.0149 H   0  0  0  0  0  0  0  0  0  0  0  0
    7.6107   -3.3794    0.8761 H   0  0  0  0  0  0  0  0  0  0  0  0
    3.9636   -3.8812    0.5633 H   0  0  0  0  0  0  0  0  0  0  0  0
    5.9419   -5.3929    2.4239 H   0  0  0  0  0  0  0  0  0  0  0  0
    8.2163  -10.1125   -1.3495 H   0  0  0  0  0  0  0  0  0  0  0  0
    6.2049   -6.7777   -3.2595 H   0  0  0  0  0  0  0  0  0  0  0  0
  1  2  1  0
  1 27  1  0
  1 28  1  0
  1 29  1  0
  3  2  1  6
  2 30  1  0
  2 31  1  0
  3  4  2  0
  3  5  2  0
  3  6  1  0
  6  7  2  0
  6 12  1  0
  7  8  1  0
  7 32  1  0
  8  9  2  0
  8 33  1  0
  9 10  1  0
  9 11  1  0
 11 12  2  0
 11 34  1  0
 12 13  1  0
 13 14  1  0
 13 35  1  0
 14 15  1  0
 14 25  1  0
 15 16  2  0
 15 36  1  0
 16 17  1  0
 17 18  2  0
 17 24  1  0
 18 19  1  0
 19 20  2  0
 19 37  1  0
 20 21  1  0
 20 23  1  0
 21 22  3  0
 23 24  2  0
 23 38  1  0
 24 25  1  0
 25 26  2  0
M  END

