
     RDKit          3D

 48 49  0  0  0  0  0  0  0  0999 V2000
    0.7522    0.7131   -0.8694 C   0  0  0  0  0  0  0  0  0  0  0  0
    1.9967    0.2228   -0.2874 N   0  0  0  0  0  0  0  0  0  0  0  0
    1.9692    0.1316    1.1531 C   0  0  0  0  0  0  0  0  0  0  0  0
    1.2006   -1.0709    1.7446 C   0  0  0  0  0  0  0  0  0  0  0  0
    0.3053   -1.6277    1.1348 O   0  0  0  0  0  0  0  0  0  0  0  0
    1.6105   -1.4117    3.0139 N   0  0  0  0  0  0  0  0  0  0  0  0
    1.0976   -2.3865    3.8952 C   0  0  0  0  0  0  0  0  0  0  0  0
    0.0387   -3.2449    3.5539 C   0  0  0  0  0  0  0  0  0  0  0  0
   -0.3919   -4.1755    4.5035 C   0  0  0  0  0  0  0  0  0  0  0  0
    0.1940   -4.2740    5.7637 C   0  0  0  0  0  0  0  0  0  0  0  0
    1.2573   -3.4165    6.1117 C   0  0  0  0  0  0  0  0  0  0  0  0
    1.8909   -3.5304    7.3428 N   0  0  0  0  0  0  0  0  0  0  0  0
    1.6953   -2.4766    5.1637 C   0  0  0  0  0  0  0  0  0  0  0  0
    2.6000   -0.9199   -1.0023 C   0  0  1  0  0  0  0  0  0  0  0  0
    2.8619   -0.5830   -2.4846 C   0  0  0  0  0  0  0  0  0  0  0  0
    3.9243    0.5095   -2.6576 C   0  0  0  0  0  0  0  0  0  0  0  0
    5.2861    0.1679   -2.0000 C   0  0  2  0  0  0  0  0  0  0  0  0
    6.1805    1.4189   -2.0052 C   0  0  0  0  0  0  0  0  0  0  0  0
    6.0075   -0.9457   -2.7858 C   0  0  0  0  0  0  0  0  0  0  0  0
    5.0341   -0.2729   -0.5348 C   0  0  0  0  0  0  0  0  0  0  0  0
    3.9477   -1.3474   -0.3879 C   0  0  0  0  0  0  0  0  0  0  0  0
    0.3367    1.5025   -0.2244 H   0  0  0  0  0  0  0  0  0  0  0  0
   -0.0223   -0.0701   -0.9805 H   0  0  0  0  0  0  0  0  0  0  0  0
    0.9317    1.1708   -1.8544 H   0  0  0  0  0  0  0  0  0  0  0  0
    1.4798    1.0400    1.5478 H   0  0  0  0  0  0  0  0  0  0  0  0
    2.9939    0.1484    1.5638 H   0  0  0  0  0  0  0  0  0  0  0  0
    2.3835   -0.8706    3.3843 H   0  0  0  0  0  0  0  0  0  0  0  0
   -0.4211   -3.1735    2.5724 H   0  0  0  0  0  0  0  0  0  0  0  0
   -1.2162   -4.8467    4.2472 H   0  0  0  0  0  0  0  0  0  0  0  0
   -0.1622   -5.0154    6.4840 H   0  0  0  0  0  0  0  0  0  0  0  0
    1.3585   -3.9816    8.0776 H   0  0  0  0  0  0  0  0  0  0  0  0
    2.3962   -2.7148    7.6690 H   0  0  0  0  0  0  0  0  0  0  0  0
    2.5231   -1.8068    5.4199 H   0  0  0  0  0  0  0  0  0  0  0  0
    1.9110   -1.7890   -0.9631 H   0  0  0  0  0  0  0  0  0  0  0  0
    1.9315   -0.2907   -2.9942 H   0  0  0  0  0  0  0  0  0  0  0  0
    3.1837   -1.5138   -2.9807 H   0  0  0  0  0  0  0  0  0  0  0  0
    3.5443    1.4407   -2.2046 H   0  0  0  0  0  0  0  0  0  0  0  0
    4.0784    0.7205   -3.7305 H   0  0  0  0  0  0  0  0  0  0  0  0
    6.3747    1.7648   -3.0343 H   0  0  0  0  0  0  0  0  0  0  0  0
    7.1556    1.2144   -1.5318 H   0  0  0  0  0  0  0  0  0  0  0  0
    5.7075    2.2497   -1.4561 H   0  0  0  0  0  0  0  0  0  0  0  0
    6.1964   -0.6301   -3.8252 H   0  0  0  0  0  0  0  0  0  0  0  0
    5.4313   -1.8824   -2.8275 H   0  0  0  0  0  0  0  0  0  0  0  0
    6.9824   -1.1797   -2.3266 H   0  0  0  0  0  0  0  0  0  0  0  0
    4.7356    0.6174    0.0449 H   0  0  0  0  0  0  0  0  0  0  0  0
    5.9802   -0.6318   -0.0923 H   0  0  0  0  0  0  0  0  0  0  0  0
    3.8353   -1.6349    0.6695 H   0  0  0  0  0  0  0  0  0  0  0  0
    4.2584   -2.2727   -0.8999 H   0  0  0  0  0  0  0  0  0  0  0  0
  1  2  1  0
  1 22  1  0
  1 23  1  0
  1 24  1  0
  2  3  1  0
  2 14  1  0
  3  4  1  0
  3 25  1  0
  3 26  1  0
  4  5  2  0
  4  6  1  0
  6  7  1  0
  6 27  1  0
  7  8  2  0
  7 13  1  0
  8  9  1  0
  8 28  1  0
  9 10  2  0
  9 29  1  0
 10 11  1  0
 10 30  1  0
 11 12  1  0
 11 13  2  0
 12 31  1  0
 12 32  1  0
 13 33  1  0
 14 15  1  0
 14 21  1  0
 14 34  1  6
 15 16  1  0
 15 35  1  0
 15 36  1  0
 16 17  1  0
 16 37  1  0
 16 38  1  0
 17 18  1  1
 17 19  1  0
 17 20  1  0
 18 39  1  0
 18 40  1  0
 18 41  1  0
 19 42  1  0
 19 43  1  0
 19 44  1  0
 20 21  1  0
 20 45  1  0
 20 46  1  0
 21 47  1  0
 21 48  1  0
M  END

