
     RDKit          3D

 66 67  0  0  0  0  0  0  0  0999 V2000
    5.7771   -6.3801    1.5491 C   0  0  0  0  0  0  0  0  0  0  0  0
    5.1263   -5.1725    0.9001 C   0  0  0  0  0  0  0  0  0  0  0  0
    5.2068   -4.0729    1.7775 O   0  0  0  0  0  0  0  0  0  0  0  0
    4.6166   -2.8939    1.2840 C   0  0  0  0  0  0  0  0  0  0  0  0
    4.8371   -1.7718    2.2893 C   0  0  0  0  0  0  0  0  0  0  0  0
    6.2177   -1.3660    2.3105 N   0  0  0  0  0  0  0  0  0  0  0  0
    6.8544   -1.1509    3.4000 C   0  0  0  0  0  0  0  0  0  0  0  0
    8.2514   -0.9271    3.2344 N   0  0  0  0  0  0  0  0  0  0  0  0
    9.0033    0.1046    3.7564 C   0  0  0  0  0  0  0  0  0  0  0  0
    8.5857    0.8745    4.6090 O   0  0  0  0  0  0  0  0  0  0  0  0
   10.4000    0.2279    3.2144 C   0  0  0  0  0  0  0  0  0  0  0  0
   11.0819    1.4296    3.4729 C   0  0  0  0  0  0  0  0  0  0  0  0
   12.3808    1.6281    3.0116 C   0  0  0  0  0  0  0  0  0  0  0  0
   13.0029    0.6055    2.2952 C   0  0  0  0  0  0  0  0  0  0  0  0
   14.2508    0.7867    1.8513 F   0  0  0  0  0  0  0  0  0  0  0  0
   12.3607   -0.6040    2.0347 C   0  0  0  0  0  0  0  0  0  0  0  0
   11.0574   -0.7872    2.4978 C   0  0  0  0  0  0  0  0  0  0  0  0
    6.3514   -1.1204    4.6765 N   0  0  0  0  0  0  0  0  0  0  0  0
    7.0060   -1.5341    5.9267 C   0  0  1  0  0  0  0  0  0  0  0  0
    6.4448   -0.7037    7.0981 C   0  0  0  0  0  0  0  0  0  0  0  0
    6.6934    0.8223    7.0492 C   0  0  1  0  0  0  0  0  0  0  0  0
    5.9880    1.5981    6.0419 N   0  0  0  0  0  0  0  0  0  0  0  0
    4.6001    1.4193    5.8868 N   0  0  0  0  0  0  0  0  0  0  0  0
    6.4494    1.4378    8.4303 C   0  0  1  0  0  0  0  0  0  0  0  0
    5.1577    1.3140    8.8190 F   0  0  0  0  0  0  0  0  0  0  0  0
    7.1970    0.8316    9.3802 F   0  0  0  0  0  0  0  0  0  0  0  0
    6.7509    2.7383    8.4640 F   0  0  0  0  0  0  0  0  0  0  0  0
    6.8153   -3.0672    6.1798 C   0  0  1  0  0  0  0  0  0  0  0  0
    7.3178   -3.9621    5.0225 C   0  0  0  0  0  0  0  0  0  0  0  0
    8.8498   -4.0528    4.9440 C   0  0  0  0  0  0  0  0  0  0  0  0
    9.4643   -4.5123    6.2723 C   0  0  0  0  0  0  0  0  0  0  0  0
    8.9825   -3.6449    7.4422 C   0  0  0  0  0  0  0  0  0  0  0  0
    7.4491   -3.5820    7.4944 C   0  0  0  0  0  0  0  0  0  0  0  0
    5.7173   -7.2557    0.8839 H   0  0  0  0  0  0  0  0  0  0  0  0
    5.2747   -6.6279    2.4971 H   0  0  0  0  0  0  0  0  0  0  0  0
    6.8379   -6.1802    1.7663 H   0  0  0  0  0  0  0  0  0  0  0  0
    4.0645   -5.3918    0.6563 H   0  0  0  0  0  0  0  0  0  0  0  0
    5.6263   -4.9332   -0.0624 H   0  0  0  0  0  0  0  0  0  0  0  0
    3.5278   -3.0425    1.1211 H   0  0  0  0  0  0  0  0  0  0  0  0
    5.0659   -2.6053    0.3123 H   0  0  0  0  0  0  0  0  0  0  0  0
    4.4473   -2.1307    3.2662 H   0  0  0  0  0  0  0  0  0  0  0  0
    4.2013   -0.9164    1.9913 H   0  0  0  0  0  0  0  0  0  0  0  0
    8.5440   -1.2857    2.3311 H   0  0  0  0  0  0  0  0  0  0  0  0
   10.5673    2.2038    4.0443 H   0  0  0  0  0  0  0  0  0  0  0  0
   12.9212    2.5581    3.1974 H   0  0  0  0  0  0  0  0  0  0  0  0
   12.8883   -1.3843    1.4834 H   0  0  0  0  0  0  0  0  0  0  0  0
   10.5704   -1.7471    2.3124 H   0  0  0  0  0  0  0  0  0  0  0  0
    5.3414   -1.2129    4.6960 H   0  0  0  0  0  0  0  0  0  0  0  0
    8.0741   -1.3023    5.8248 H   0  0  0  0  0  0  0  0  0  0  0  0
    6.8944   -1.0744    8.0270 H   0  0  0  0  0  0  0  0  0  0  0  0
    5.3620   -0.9045    7.1999 H   0  0  0  0  0  0  0  0  0  0  0  0
    7.7612    0.9923    6.8472 H   0  0  0  0  0  0  0  0  0  0  0  0
    6.4618    1.4897    5.1503 H   0  0  0  0  0  0  0  0  0  0  0  0
    4.1109    1.9914    6.5740 H   0  0  0  0  0  0  0  0  0  0  0  0
    4.3025    0.4520    6.0520 H   0  0  0  0  0  0  0  0  0  0  0  0
    5.7215   -3.2152    6.2607 H   0  0  0  0  0  0  0  0  0  0  0  0
    6.8945   -3.6527    4.0557 H   0  0  0  0  0  0  0  0  0  0  0  0
    6.9185   -4.9772    5.1987 H   0  0  0  0  0  0  0  0  0  0  0  0
    9.2686   -3.0698    4.6673 H   0  0  0  0  0  0  0  0  0  0  0  0
    9.1364   -4.7437    4.1326 H   0  0  0  0  0  0  0  0  0  0  0  0
   10.5658   -4.5033    6.2127 H   0  0  0  0  0  0  0  0  0  0  0  0
    9.1723   -5.5621    6.4618 H   0  0  0  0  0  0  0  0  0  0  0  0
    9.4011   -2.6265    7.3446 H   0  0  0  0  0  0  0  0  0  0  0  0
    9.3710   -4.0396    8.3961 H   0  0  0  0  0  0  0  0  0  0  0  0
    7.1171   -2.9939    8.3630 H   0  0  0  0  0  0  0  0  0  0  0  0
    7.0642   -4.6030    7.6671 H   0  0  0  0  0  0  0  0  0  0  0  0
  1  2  1  0
  1 34  1  0
  1 35  1  0
  1 36  1  0
  2  3  1  0
  2 37  1  0
  2 38  1  0
  3  4  1  0
  4  5  1  0
  4 39  1  0
  4 40  1  0
  5  6  1  0
  5 41  1  0
  5 42  1  0
  6  7  2  0
  7  8  1  0
  7 18  1  0
  8  9  1  0
  8 43  1  0
  9 10  2  0
  9 11  1  0
 11 12  2  0
 11 17  1  0
 12 13  1  0
 12 44  1  0
 13 14  2  0
 13 45  1  0
 14 15  1  0
 14 16  1  0
 16 17  2  0
 16 46  1  0
 17 47  1  0
 18 19  1  0
 18 48  1  0
 19 20  1  0
 19 28  1  0
 19 49  1  6
 20 21  1  0
 20 50  1  0
 20 51  1  0
 21 22  1  0
 21 24  1  0
 21 52  1  6
 22 23  1  0
 22 53  1  0
 23 54  1  0
 23 55  1  0
 24 25  1  1
 24 26  1  0
 24 27  1  0
 28 29  1  0
 28 33  1  0
 28 56  1  1
 29 30  1  0
 29 57  1  0
 29 58  1  0
 30 31  1  0
 30 59  1  0
 30 60  1  0
 31 32  1  0
 31 61  1  0
 31 62  1  0
 32 33  1  0
 32 63  1  0
 32 64  1  0
 33 65  1  0
 33 66  1  0
M  END

