
     RDKit          3D

 43 46  0  0  0  0  0  0  0  0999 V2000
    1.0528    0.4186   -1.1899 C   0  0  0  0  0  0  0  0  0  0  0  0
    1.9579    0.1509   -0.0294 C   0  0  0  0  0  0  0  0  0  0  0  0
    2.3819    1.1781    0.7737 N   0  0  0  0  0  0  0  0  0  0  0  0
    2.1002    2.1431    0.6558 H   0  0  0  0  0  0  0  0  0  0  0  0
    3.2500    0.7221    1.7402 C   0  0  0  0  0  0  0  0  0  0  0  0
    3.4028   -0.6301    1.5532 C   0  0  0  0  0  0  0  0  0  0  0  0
    2.5715   -1.0101    0.4477 C   0  0  0  0  0  0  0  0  0  0  0  0
    2.5623   -2.4042   -0.0682 C   0  0  0  0  0  0  0  0  0  0  0  0
    3.5932   -3.0663   -0.1063 O   0  0  0  0  0  0  0  0  0  0  0  0
    1.3738   -2.9856   -0.4786 N   0  0  0  0  0  0  0  0  0  0  0  0
    1.4400   -4.3121   -1.1101 C   0  0  0  0  0  0  0  0  0  0  0  0
    0.0176   -4.5340   -1.6253 C   0  0  0  0  0  0  0  0  0  0  0  0
   -0.8354   -3.8301   -0.5676 C   0  0  0  0  0  0  0  0  0  0  0  0
   -0.0148   -2.5577   -0.2320 C   0  0  1  0  0  0  0  0  0  0  0  0
   -0.3227   -1.7529   -0.9157 H   0  0  0  0  0  0  0  0  0  0  0  0
   -0.2882   -2.0461    1.1524 C   0  0  0  0  0  0  0  0  0  0  0  0
   -1.1411   -1.0876    1.4565 N   0  0  0  0  0  0  0  0  0  0  0  0
   -1.1109   -1.0445    2.8264 C   0  0  0  0  0  0  0  0  0  0  0  0
   -1.9167   -0.1055    3.6239 C   0  0  0  0  0  0  0  0  0  0  0  0
   -2.8001    0.7815    2.9864 C   0  0  0  0  0  0  0  0  0  0  0  0
   -3.5669    1.6746    3.7376 C   0  0  0  0  0  0  0  0  0  0  0  0
   -3.4616    1.6934    5.1320 C   0  0  0  0  0  0  0  0  0  0  0  0
   -2.5834    0.8114    5.7725 C   0  0  0  0  0  0  0  0  0  0  0  0
   -1.8154   -0.0826    5.0263 C   0  0  0  0  0  0  0  0  0  0  0  0
   -0.2810   -1.9290    3.3698 N   0  0  0  0  0  0  0  0  0  0  0  0
    0.2220   -2.5650    2.2957 N   0  0  0  0  0  0  0  0  0  0  0  0
    0.9466   -3.2656    2.4062 H   0  0  0  0  0  0  0  0  0  0  0  0
    1.3141    1.3699   -1.6822 H   0  0  0  0  0  0  0  0  0  0  0  0
   -0.0046    0.4822   -0.8777 H   0  0  0  0  0  0  0  0  0  0  0  0
    1.1413   -0.3737   -1.9454 H   0  0  0  0  0  0  0  0  0  0  0  0
    3.6856    1.3971    2.4731 H   0  0  0  0  0  0  0  0  0  0  0  0
    4.0337   -1.3037    2.1280 H   0  0  0  0  0  0  0  0  0  0  0  0
    1.7371   -5.0818   -0.3741 H   0  0  0  0  0  0  0  0  0  0  0  0
    2.2102   -4.3199   -1.8945 H   0  0  0  0  0  0  0  0  0  0  0  0
   -0.2313   -5.5988   -1.7435 H   0  0  0  0  0  0  0  0  0  0  0  0
   -0.1126   -4.0477   -2.6065 H   0  0  0  0  0  0  0  0  0  0  0  0
   -0.9211   -4.4612    0.3324 H   0  0  0  0  0  0  0  0  0  0  0  0
   -1.8541   -3.5776   -0.8942 H   0  0  0  0  0  0  0  0  0  0  0  0
   -2.8753    0.7555    1.8979 H   0  0  0  0  0  0  0  0  0  0  0  0
   -4.2524    2.3596    3.2316 H   0  0  0  0  0  0  0  0  0  0  0  0
   -4.0628    2.3925    5.7192 H   0  0  0  0  0  0  0  0  0  0  0  0
   -2.4971    0.8212    6.8623 H   0  0  0  0  0  0  0  0  0  0  0  0
   -1.1280   -0.7733    5.5183 H   0  0  0  0  0  0  0  0  0  0  0  0
  1  2  1  0
  1 28  1  0
  1 29  1  0
  1 30  1  0
  2  3  1  0
  2  7  2  0
  3  4  1  0
  3  5  1  0
  5  6  2  0
  5 31  1  0
  6  7  1  0
  6 32  1  0
  7  8  1  0
  8  9  2  0
  8 10  1  0
 10 11  1  0
 10 14  1  0
 11 12  1  0
 11 33  1  0
 11 34  1  0
 12 13  1  0
 12 35  1  0
 12 36  1  0
 13 14  1  0
 13 37  1  0
 13 38  1  0
 14 15  1  6
 14 16  1  0
 16 17  2  0
 16 26  1  0
 17 18  1  0
 18 19  1  0
 18 25  2  0
 19 20  2  0
 19 24  1  0
 20 21  1  0
 20 39  1  0
 21 22  2  0
 21 40  1  0
 22 23  1  0
 22 41  1  0
 23 24  2  0
 23 42  1  0
 24 43  1  0
 25 26  1  0
 26 27  1  0
M  END

