
     RDKit          3D

 54 57  0  0  0  0  0  0  0  0999 V2000
    1.1072    0.2387   -1.0576 C   0  0  0  0  0  0  0  0  0  0  0  0
    2.4374    0.0474   -0.3416 C   0  0  0  0  0  0  0  0  0  0  0  0
    2.9330   -1.0606   -0.2195 O   0  0  0  0  0  0  0  0  0  0  0  0
    3.0572    1.1752    0.1572 N   0  0  0  0  0  0  0  0  0  0  0  0
    4.3118    1.0492    0.8849 C   0  0  0  0  0  0  0  0  0  0  0  0
    5.3544    2.0132    0.3260 C   0  0  0  0  0  0  0  0  0  0  0  0
    4.8485    3.3877    0.2961 N   0  0  0  0  0  0  0  0  0  0  0  0
    5.7568    4.4544    0.2793 C   0  0  0  0  0  0  0  0  0  0  0  0
    5.5690    5.5959   -0.5293 C   0  0  0  0  0  0  0  0  0  0  0  0
    6.4677    6.6606   -0.4893 C   0  0  0  0  0  0  0  0  0  0  0  0
    7.6063    6.6525    0.3368 C   0  0  0  0  0  0  0  0  0  0  0  0
    8.5136    7.7986    0.3259 C   0  0  0  0  0  0  0  0  0  0  0  0
    9.6528    7.9538    1.0385 C   0  0  0  0  0  0  0  0  0  0  0  0
   10.5508    9.1126    1.0177 C   0  0  0  0  0  0  0  0  0  0  0  0
   10.3212   10.2515    0.2181 C   0  0  0  0  0  0  0  0  0  0  0  0
   11.2286   11.3002    0.2497 C   0  0  0  0  0  0  0  0  0  0  0  0
   10.9936   12.3810   -0.5111 F   0  0  0  0  0  0  0  0  0  0  0  0
   12.3719   11.2821    1.0455 C   0  0  0  0  0  0  0  0  0  0  0  0
   12.6178   10.1601    1.8545 C   0  0  0  0  0  0  0  0  0  0  0  0
   13.8261   10.1057    2.7197 C   0  0  0  0  0  0  0  0  0  0  0  0
   13.8042    9.4925    3.9842 C   0  0  0  0  0  0  0  0  0  0  0  0
   14.9680    9.4693    4.7565 C   0  0  0  0  0  0  0  0  0  0  0  0
   16.1287   10.0022    4.3666 N   0  0  0  0  0  0  0  0  0  0  0  0
   16.1557   10.5868    3.1662 C   0  0  0  0  0  0  0  0  0  0  0  0
   15.0503   10.6658    2.3159 C   0  0  0  0  0  0  0  0  0  0  0  0
   11.7036    9.0940    1.8281 C   0  0  0  0  0  0  0  0  0  0  0  0
    7.7931    5.5045    1.1392 C   0  0  0  0  0  0  0  0  0  0  0  0
    6.9017    4.4431    1.1153 C   0  0  0  0  0  0  0  0  0  0  0  0
    3.5937    3.5083   -0.4284 C   0  0  0  0  0  0  0  0  0  0  0  0
    2.5454    2.5330    0.1212 C   0  0  0  0  0  0  0  0  0  0  0  0
    0.7671   -0.7516   -1.3825 H   0  0  0  0  0  0  0  0  0  0  0  0
    1.2048    0.8896   -1.9410 H   0  0  0  0  0  0  0  0  0  0  0  0
    0.3447    0.6794   -0.3957 H   0  0  0  0  0  0  0  0  0  0  0  0
    4.6493    0.0094    0.7938 H   0  0  0  0  0  0  0  0  0  0  0  0
    4.1438    1.2724    1.9560 H   0  0  0  0  0  0  0  0  0  0  0  0
    5.6380    1.6885   -0.6978 H   0  0  0  0  0  0  0  0  0  0  0  0
    6.2578    1.9592    0.9448 H   0  0  0  0  0  0  0  0  0  0  0  0
    4.7239    5.6574   -1.2143 H   0  0  0  0  0  0  0  0  0  0  0  0
    6.2865    7.5248   -1.1352 H   0  0  0  0  0  0  0  0  0  0  0  0
    8.2064    8.6057   -0.3479 H   0  0  0  0  0  0  0  0  0  0  0  0
    9.9687    7.1500    1.7110 H   0  0  0  0  0  0  0  0  0  0  0  0
    9.4487   10.3392   -0.4301 H   0  0  0  0  0  0  0  0  0  0  0  0
   13.0334   12.1493    1.0434 H   0  0  0  0  0  0  0  0  0  0  0  0
   12.8835    9.0576    4.3785 H   0  0  0  0  0  0  0  0  0  0  0  0
   14.9540    8.9978    5.7467 H   0  0  0  0  0  0  0  0  0  0  0  0
   17.1148   11.0166    2.8526 H   0  0  0  0  0  0  0  0  0  0  0  0
   15.1525   11.1395    1.3372 H   0  0  0  0  0  0  0  0  0  0  0  0
   11.9010    8.2068    2.4334 H   0  0  0  0  0  0  0  0  0  0  0  0
    8.6511    5.4438    1.8124 H   0  0  0  0  0  0  0  0  0  0  0  0
    7.0798    3.5976    1.7812 H   0  0  0  0  0  0  0  0  0  0  0  0
    3.7290    3.3229   -1.5168 H   0  0  0  0  0  0  0  0  0  0  0  0
    3.2037    4.5291   -0.3108 H   0  0  0  0  0  0  0  0  0  0  0  0
    1.6444    2.5900   -0.5006 H   0  0  0  0  0  0  0  0  0  0  0  0
    2.2675    2.8544    1.1442 H   0  0  0  0  0  0  0  0  0  0  0  0
  1  2  1  0
  1 31  1  0
  1 32  1  0
  1 33  1  0
  2  3  2  0
  2  4  1  0
  4  5  1  0
  4 30  1  0
  5  6  1  0
  5 34  1  0
  5 35  1  0
  6  7  1  0
  6 36  1  0
  6 37  1  0
  7  8  1  0
  7 29  1  0
  8  9  2  0
  8 28  1  0
  9 10  1  0
  9 38  1  0
 10 11  2  0
 10 39  1  0
 11 12  1  0
 11 27  1  0
 12 13  2  0
 12 40  1  0
 13 14  1  0
 13 41  1  0
 14 15  2  0
 14 26  1  0
 15 16  1  0
 15 42  1  0
 16 17  1  0
 16 18  2  0
 18 19  1  0
 18 43  1  0
 19 20  1  0
 19 26  2  0
 20 21  2  0
 20 25  1  0
 21 22  1  0
 21 44  1  0
 22 23  2  0
 22 45  1  0
 23 24  1  0
 24 25  2  0
 24 46  1  0
 25 47  1  0
 26 48  1  0
 27 28  2  0
 27 49  1  0
 28 50  1  0
 29 30  1  0
 29 51  1  0
 29 52  1  0
 30 53  1  0
 30 54  1  0
M  END

