
     RDKit          3D

 38 39  0  0  0  0  0  0  0  0999 V2000
    1.1838   -0.7752   -5.2597 C   0  0  0  0  0  0  0  0  0  0  0  0
    2.5629   -0.9434   -5.8696 C   0  0  0  0  0  0  0  0  0  0  0  0
    3.5346   -0.7225   -4.8709 O   0  0  0  0  0  0  0  0  0  0  0  0
    4.8594   -0.8629   -5.3109 C   0  0  0  0  0  0  0  0  0  0  0  0
    5.7962   -0.7245   -4.1246 C   0  0  0  0  0  0  0  0  0  0  0  0
    5.6123   -2.0500   -2.8630 S   0  0  0  0  0  0  0  0  0  0  0  0
    6.6320   -3.2745   -3.5870 C   0  0  0  0  0  0  0  0  0  0  0  0
    7.2438   -3.2332   -4.7601 N   0  0  0  0  0  0  0  0  0  0  0  0
    7.9203   -4.3992   -4.8703 N   0  0  0  0  0  0  0  0  0  0  0  0
    7.7503   -5.1368   -3.8352 N   0  0  0  0  0  0  0  0  0  0  0  0
    6.9394   -4.4525   -2.9930 N   0  0  0  0  0  0  0  0  0  0  0  0
    6.5089   -5.0231   -1.7185 C   0  0  0  0  0  0  0  0  0  0  0  0
    5.1745   -5.7355   -1.7866 C   0  0  0  0  0  0  0  0  0  0  0  0
    5.0175   -6.8828   -2.5873 C   0  0  0  0  0  0  0  0  0  0  0  0
    3.7999   -7.5469   -2.6494 C   0  0  0  0  0  0  0  0  0  0  0  0
    2.6974   -7.0827   -1.9059 C   0  0  0  0  0  0  0  0  0  0  0  0
    1.5533   -7.7982   -2.0283 O   0  0  0  0  0  0  0  0  0  0  0  0
    0.4044   -7.3945   -1.3173 C   0  0  0  0  0  0  0  0  0  0  0  0
    2.8406   -5.9409   -1.1048 C   0  0  0  0  0  0  0  0  0  0  0  0
    4.0740   -5.2794   -1.0571 C   0  0  0  0  0  0  0  0  0  0  0  0
    0.4023   -0.9455   -6.0166 H   0  0  0  0  0  0  0  0  0  0  0  0
    1.0611    0.2410   -4.8537 H   0  0  0  0  0  0  0  0  0  0  0  0
    1.0368   -1.4922   -4.4372 H   0  0  0  0  0  0  0  0  0  0  0  0
    2.7051   -0.2303   -6.7096 H   0  0  0  0  0  0  0  0  0  0  0  0
    2.6783   -1.9618   -6.2964 H   0  0  0  0  0  0  0  0  0  0  0  0
    5.1194   -0.0722   -6.0490 H   0  0  0  0  0  0  0  0  0  0  0  0
    5.0246   -1.8363   -5.8118 H   0  0  0  0  0  0  0  0  0  0  0  0
    5.5763    0.2026   -3.5746 H   0  0  0  0  0  0  0  0  0  0  0  0
    6.8435   -0.7164   -4.4536 H   0  0  0  0  0  0  0  0  0  0  0  0
    6.4763   -4.2066   -0.9817 H   0  0  0  0  0  0  0  0  0  0  0  0
    7.3143   -5.7116   -1.4237 H   0  0  0  0  0  0  0  0  0  0  0  0
    5.8636   -7.2514   -3.1738 H   0  0  0  0  0  0  0  0  0  0  0  0
    3.6690   -8.4371   -3.2678 H   0  0  0  0  0  0  0  0  0  0  0  0
   -0.3875   -8.1126   -1.5687 H   0  0  0  0  0  0  0  0  0  0  0  0
    0.0745   -6.3814   -1.6100 H   0  0  0  0  0  0  0  0  0  0  0  0
    0.5694   -7.4125   -0.2248 H   0  0  0  0  0  0  0  0  0  0  0  0
    2.0061   -5.5540   -0.5201 H   0  0  0  0  0  0  0  0  0  0  0  0
    4.1689   -4.3864   -0.4328 H   0  0  0  0  0  0  0  0  0  0  0  0
  1  2  1  0
  1 21  1  0
  1 22  1  0
  1 23  1  0
  2  3  1  0
  2 24  1  0
  2 25  1  0
  3  4  1  0
  4  5  1  0
  4 26  1  0
  4 27  1  0
  5  6  1  0
  5 28  1  0
  5 29  1  0
  6  7  1  0
  7  8  2  0
  7 11  1  0
  8  9  1  0
  9 10  2  0
 10 11  1  0
 11 12  1  0
 12 13  1  0
 12 30  1  0
 12 31  1  0
 13 14  2  0
 13 20  1  0
 14 15  1  0
 14 32  1  0
 15 16  2  0
 15 33  1  0
 16 17  1  0
 16 19  1  0
 17 18  1  0
 18 34  1  0
 18 35  1  0
 18 36  1  0
 19 20  2  0
 19 37  1  0
 20 38  1  0
M  END

