
     RDKit          3D

 40 41  0  0  0  0  0  0  0  0999 V2000
    3.0243    0.7123   -3.8798 C   0  0  0  0  0  0  0  0  0  0  0  0
    4.0542   -0.0015   -3.0571 C   0  0  0  0  0  0  0  0  0  0  0  0
    5.2605   -0.5248   -3.4580 C   0  0  0  0  0  0  0  0  0  0  0  0
    6.0022   -1.1337   -2.4002 C   0  0  0  0  0  0  0  0  0  0  0  0
    5.3635   -1.0724   -1.1862 C   0  0  0  0  0  0  0  0  0  0  0  0
    5.8153   -1.6520    0.1282 C   0  0  0  0  0  0  0  0  0  0  0  0
    5.3782   -3.0233    0.3572 N   0  0  0  0  0  0  0  0  0  0  0  0
    6.1514   -4.0893    0.0848 C   0  0  0  0  0  0  0  0  0  0  0  0
    7.3133   -4.0651   -0.3041 O   0  0  0  0  0  0  0  0  0  0  0  0
    5.4114   -5.4253    0.3324 C   0  0  0  0  0  0  0  0  0  0  0  0
    4.2449   -5.4546    0.6955 O   0  0  0  0  0  0  0  0  0  0  0  0
    6.2331   -6.4753    0.0870 N   0  0  0  0  0  0  0  0  0  0  0  0
    5.9762   -7.8518    0.1825 C   0  0  0  0  0  0  0  0  0  0  0  0
    4.7353   -8.3705    0.5907 C   0  0  0  0  0  0  0  0  0  0  0  0
    4.5590   -9.7539    0.6648 C   0  0  0  0  0  0  0  0  0  0  0  0
    5.5853  -10.6559    0.3407 C   0  0  0  0  0  0  0  0  0  0  0  0
    5.3676  -12.1484    0.3908 C   0  0  0  0  0  0  0  0  0  0  0  0
    4.9403  -12.8466   -0.9160 C   0  0  0  0  0  0  0  0  0  0  0  0
    4.4181  -12.0405   -1.8815 N   0  0  0  0  0  0  0  0  0  0  0  0
    5.0381  -14.0524   -1.0395 O   0  0  0  0  0  0  0  0  0  0  0  0
    6.8190  -10.1178   -0.0646 C   0  0  0  0  0  0  0  0  0  0  0  0
    7.0159   -8.7418   -0.1429 C   0  0  0  0  0  0  0  0  0  0  0  0
    3.8268   -0.2594   -1.3462 S   0  0  0  0  0  0  0  0  0  0  0  0
    3.3603    0.7750   -4.9253 H   0  0  0  0  0  0  0  0  0  0  0  0
    2.8480    1.7399   -3.5201 H   0  0  0  0  0  0  0  0  0  0  0  0
    2.0528    0.1904   -3.8687 H   0  0  0  0  0  0  0  0  0  0  0  0
    5.6100   -0.4687   -4.4909 H   0  0  0  0  0  0  0  0  0  0  0  0
    6.9765   -1.6098   -2.5270 H   0  0  0  0  0  0  0  0  0  0  0  0
    5.4692   -1.0299    0.9687 H   0  0  0  0  0  0  0  0  0  0  0  0
    6.9141   -1.6659    0.1504 H   0  0  0  0  0  0  0  0  0  0  0  0
    4.4146   -3.2331    0.6082 H   0  0  0  0  0  0  0  0  0  0  0  0
    7.1629   -6.1782   -0.2113 H   0  0  0  0  0  0  0  0  0  0  0  0
    3.9292   -7.6871    0.8502 H   0  0  0  0  0  0  0  0  0  0  0  0
    3.5899  -10.1412    0.9934 H   0  0  0  0  0  0  0  0  0  0  0  0
    4.5882  -12.3997    1.1298 H   0  0  0  0  0  0  0  0  0  0  0  0
    6.2762  -12.6763    0.7164 H   0  0  0  0  0  0  0  0  0  0  0  0
    4.3922  -11.0338   -1.7864 H   0  0  0  0  0  0  0  0  0  0  0  0
    4.1234  -12.4676   -2.7515 H   0  0  0  0  0  0  0  0  0  0  0  0
    7.6432  -10.7895   -0.3207 H   0  0  0  0  0  0  0  0  0  0  0  0
    7.9866   -8.3469   -0.4560 H   0  0  0  0  0  0  0  0  0  0  0  0
  1  2  1  0
  1 24  1  0
  1 25  1  0
  1 26  1  0
  2  3  2  0
  2 23  1  0
  3  4  1  0
  3 27  1  0
  4  5  2  0
  4 28  1  0
  5  6  1  0
  5 23  1  0
  6  7  1  0
  6 29  1  0
  6 30  1  0
  7  8  1  0
  7 31  1  0
  8  9  2  0
  8 10  1  0
 10 11  2  0
 10 12  1  0
 12 13  1  0
 12 32  1  0
 13 14  2  0
 13 22  1  0
 14 15  1  0
 14 33  1  0
 15 16  2  0
 15 34  1  0
 16 17  1  0
 16 21  1  0
 17 18  1  0
 17 35  1  0
 17 36  1  0
 18 19  1  0
 18 20  2  0
 19 37  1  0
 19 38  1  0
 21 22  2  0
 21 39  1  0
 22 40  1  0
M  END

