
     RDKit          3D

 44 46  0  0  0  0  0  0  0  0999 V2000
    2.0401   -0.8582    0.7007 C   0  0  0  0  0  0  0  0  0  0  0  0
    2.8769   -0.1011   -0.3007 C   0  0  0  0  0  0  0  0  0  0  0  0
    3.6822    0.9962    0.0799 C   0  0  0  0  0  0  0  0  0  0  0  0
    3.7361    1.4890    1.5069 C   0  0  0  0  0  0  0  0  0  0  0  0
    4.4525    1.6344   -0.9019 C   0  0  0  0  0  0  0  0  0  0  0  0
    5.2135    2.7373   -0.5528 O   0  0  0  0  0  0  0  0  0  0  0  0
    6.5268    2.5908   -0.2823 C   0  0  0  0  0  0  0  0  0  0  0  0
    7.1645    3.7160   -0.0188 N   0  0  0  0  0  0  0  0  0  0  0  0
    8.4734    3.5495    0.2559 C   0  0  0  0  0  0  0  0  0  0  0  0
    9.1881    4.6588    0.5356 N   0  0  0  0  0  0  0  0  0  0  0  0
    9.1149    2.3711    0.2737 N   0  0  0  0  0  0  0  0  0  0  0  0
    8.3449    1.3126   -0.0050 C   0  0  0  0  0  0  0  0  0  0  0  0
    9.0023    0.1077    0.0188 N   0  0  0  0  0  0  0  0  0  0  0  0
    8.5790   -1.2013   -0.2160 C   0  0  0  0  0  0  0  0  0  0  0  0
    9.5488   -2.2190   -0.0830 C   0  0  0  0  0  0  0  0  0  0  0  0
    9.2237   -3.5509   -0.2972 C   0  0  0  0  0  0  0  0  0  0  0  0
    7.9097   -3.9120   -0.6537 C   0  0  0  0  0  0  0  0  0  0  0  0
    7.5661   -5.2865   -0.8754 C   0  0  0  0  0  0  0  0  0  0  0  0
    7.2889   -6.4006   -1.0541 N   0  0  0  0  0  0  0  0  0  0  0  0
    6.9430   -2.8980   -0.7875 C   0  0  0  0  0  0  0  0  0  0  0  0
    7.2636   -1.5607   -0.5737 C   0  0  0  0  0  0  0  0  0  0  0  0
    7.0374    1.3616   -0.2876 N   0  0  0  0  0  0  0  0  0  0  0  0
    4.4166    1.2317   -2.2448 C   0  0  0  0  0  0  0  0  0  0  0  0
    5.4018    2.1163   -3.3879 Cl  0  0  0  0  0  0  0  0  0  0  0  0
    3.6186    0.1547   -2.6612 C   0  0  0  0  0  0  0  0  0  0  0  0
    3.5495   -0.3081   -4.0921 C   0  0  0  0  0  0  0  0  0  0  0  0
    2.8732   -0.4843   -1.6525 C   0  0  0  0  0  0  0  0  0  0  0  0
    1.8697   -1.8504   -2.1254 Cl  0  0  0  0  0  0  0  0  0  0  0  0
    2.1999   -0.5080    1.7265 H   0  0  0  0  0  0  0  0  0  0  0  0
    2.2697   -1.9347    0.6671 H   0  0  0  0  0  0  0  0  0  0  0  0
    0.9662   -0.7652    0.4687 H   0  0  0  0  0  0  0  0  0  0  0  0
    2.7265    1.6205    1.9243 H   0  0  0  0  0  0  0  0  0  0  0  0
    4.2507    2.4553    1.5707 H   0  0  0  0  0  0  0  0  0  0  0  0
    4.2707    0.7771    2.1581 H   0  0  0  0  0  0  0  0  0  0  0  0
    8.7306    5.5595    0.5074 H   0  0  0  0  0  0  0  0  0  0  0  0
   10.1765    4.5811    0.7290 H   0  0  0  0  0  0  0  0  0  0  0  0
    9.9828    0.2235    0.2532 H   0  0  0  0  0  0  0  0  0  0  0  0
   10.5731   -1.9533    0.1934 H   0  0  0  0  0  0  0  0  0  0  0  0
    9.9879   -4.3229   -0.1892 H   0  0  0  0  0  0  0  0  0  0  0  0
    5.9209   -3.1636   -1.0653 H   0  0  0  0  0  0  0  0  0  0  0  0
    6.5094   -0.7859   -0.6805 H   0  0  0  0  0  0  0  0  0  0  0  0
    4.1920    0.2987   -4.7394 H   0  0  0  0  0  0  0  0  0  0  0  0
    2.5154   -0.2538   -4.4679 H   0  0  0  0  0  0  0  0  0  0  0  0
    3.8580   -1.3623   -4.1757 H   0  0  0  0  0  0  0  0  0  0  0  0
  1  2  1  0
  1 29  1  0
  1 30  1  0
  1 31  1  0
  2  3  2  0
  2 27  1  0
  3  4  1  0
  3  5  1  0
  4 32  1  0
  4 33  1  0
  4 34  1  0
  5  6  1  0
  5 23  2  0
  6  7  1  0
  7  8  2  0
  7 22  1  0
  8  9  1  0
  9 10  1  0
  9 11  2  0
 10 35  1  0
 10 36  1  0
 11 12  1  0
 12 13  1  0
 12 22  2  0
 13 14  1  0
 13 37  1  0
 14 15  2  0
 14 21  1  0
 15 16  1  0
 15 38  1  0
 16 17  2  0
 16 39  1  0
 17 18  1  0
 17 20  1  0
 18 19  3  0
 20 21  2  0
 20 40  1  0
 21 41  1  0
 23 24  1  0
 23 25  1  0
 25 26  1  0
 25 27  2  0
 26 42  1  0
 26 43  1  0
 26 44  1  0
 27 28  1  0
M  END

