
     RDKit          3D

 55 58  0  0  0  0  0  0  0  0999 V2000
    2.1417    0.6276    2.1893 C   0  0  0  0  0  0  0  0  0  0  0  0
    3.3336    0.4950    1.2755 C   0  0  0  0  0  0  0  0  0  0  0  0
    4.6331    0.4751    1.8004 C   0  0  0  0  0  0  0  0  0  0  0  0
    5.7568    0.3693    0.9801 C   0  0  0  0  0  0  0  0  0  0  0  0
    5.5876    0.2662   -0.4028 C   0  0  0  0  0  0  0  0  0  0  0  0
    6.7301    0.1763   -1.2683 N   0  0  0  0  0  0  0  0  0  0  0  0
    6.9897    1.2298   -2.2542 C   0  0  0  0  0  0  0  0  0  0  0  0
    7.8674    2.3911   -1.7388 C   0  0  0  0  0  0  0  0  0  0  0  0
    7.5133    3.5389   -1.8442 O   0  0  0  0  0  0  0  0  0  0  0  0
    9.0745    1.9611   -1.2008 N   0  0  0  0  0  0  0  0  0  0  0  0
   10.0653    2.7454   -0.6442 C   0  0  0  0  0  0  0  0  0  0  0  0
    9.9793    4.0082   -0.3410 N   0  0  0  0  0  0  0  0  0  0  0  0
   11.1180    4.4982    0.1936 N   0  0  0  0  0  0  0  0  0  0  0  0
   12.0862    3.6342    0.3147 C   0  0  0  0  0  0  0  0  0  0  0  0
   13.4062    3.9485    0.8781 C   0  0  0  0  0  0  0  0  0  0  0  0
   14.4160    2.9776    0.9990 C   0  0  0  0  0  0  0  0  0  0  0  0
   15.6593    3.3106    1.5395 C   0  0  0  0  0  0  0  0  0  0  0  0
   15.9124    4.6173    1.9665 C   0  0  0  0  0  0  0  0  0  0  0  0
   14.9123    5.5902    1.8493 C   0  0  0  0  0  0  0  0  0  0  0  0
   13.6694    5.2633    1.3109 C   0  0  0  0  0  0  0  0  0  0  0  0
   11.6361    2.0294   -0.2746 S   0  0  0  0  0  0  0  0  0  0  0  0
    7.6093   -1.2588   -1.3493 S   0  0  1  0  0  0  0  0  0  0  0  0
    8.9384   -0.8616   -1.8560 O   0  0  0  0  0  0  0  0  0  0  0  0
    7.4494   -1.9456   -0.0725 O   0  0  0  0  0  0  0  0  0  0  0  0
    6.8571   -2.2774   -2.6164 C   0  0  0  0  0  0  0  0  0  0  0  0
    7.3718   -2.2680   -3.9172 C   0  0  0  0  0  0  0  0  0  0  0  0
    6.7609   -3.0463   -4.9016 C   0  0  0  0  0  0  0  0  0  0  0  0
    5.6476   -3.8264   -4.5697 C   0  0  0  0  0  0  0  0  0  0  0  0
    4.8842   -4.7979   -5.7978 Cl  0  0  0  0  0  0  0  0  0  0  0  0
    5.1435   -3.8475   -3.2630 C   0  0  0  0  0  0  0  0  0  0  0  0
    5.7541   -3.0716   -2.2785 C   0  0  0  0  0  0  0  0  0  0  0  0
    4.2925    0.2709   -0.9415 C   0  0  0  0  0  0  0  0  0  0  0  0
    3.1613    0.3929   -0.1266 C   0  0  0  0  0  0  0  0  0  0  0  0
    1.7817    0.4111   -0.7371 C   0  0  0  0  0  0  0  0  0  0  0  0
    2.4498    0.6945    3.2424 H   0  0  0  0  0  0  0  0  0  0  0  0
    1.4570   -0.2322    2.0922 H   0  0  0  0  0  0  0  0  0  0  0  0
    1.5488    1.5278    1.9540 H   0  0  0  0  0  0  0  0  0  0  0  0
    4.7711    0.5550    2.8820 H   0  0  0  0  0  0  0  0  0  0  0  0
    6.7614    0.3599    1.4034 H   0  0  0  0  0  0  0  0  0  0  0  0
    6.0418    1.6872   -2.5652 H   0  0  0  0  0  0  0  0  0  0  0  0
    7.4657    0.7992   -3.1493 H   0  0  0  0  0  0  0  0  0  0  0  0
    9.2673    0.9592   -1.2830 H   0  0  0  0  0  0  0  0  0  0  0  0
   14.2314    1.9517    0.6691 H   0  0  0  0  0  0  0  0  0  0  0  0
   16.4335    2.5443    1.6268 H   0  0  0  0  0  0  0  0  0  0  0  0
   16.8860    4.8777    2.3893 H   0  0  0  0  0  0  0  0  0  0  0  0
   15.1039    6.6138    2.1812 H   0  0  0  0  0  0  0  0  0  0  0  0
   12.8810    6.0111    1.2136 H   0  0  0  0  0  0  0  0  0  0  0  0
    8.2578   -1.6746   -4.1482 H   0  0  0  0  0  0  0  0  0  0  0  0
    7.1488   -3.0590   -5.9212 H   0  0  0  0  0  0  0  0  0  0  0  0
    4.2850   -4.4764   -3.0228 H   0  0  0  0  0  0  0  0  0  0  0  0
    5.3899   -3.0925   -1.2501 H   0  0  0  0  0  0  0  0  0  0  0  0
    4.1641    0.1834   -2.0238 H   0  0  0  0  0  0  0  0  0  0  0  0
    1.8243    0.3148   -1.8315 H   0  0  0  0  0  0  0  0  0  0  0  0
    1.2488    1.3484   -0.5036 H   0  0  0  0  0  0  0  0  0  0  0  0
    1.1543   -0.4098   -0.3503 H   0  0  0  0  0  0  0  0  0  0  0  0
  1  2  1  0
  1 35  1  0
  1 36  1  0
  1 37  1  0
  2  3  2  0
  2 33  1  0
  3  4  1  0
  3 38  1  0
  4  5  2  0
  4 39  1  0
  5  6  1  0
  5 32  1  0
  6  7  1  0
 22  6  1  1
  7  8  1  0
  7 40  1  0
  7 41  1  0
  8  9  2  0
  8 10  1  0
 10 11  1  0
 10 42  1  0
 11 12  2  0
 11 21  1  0
 12 13  1  0
 13 14  2  0
 14 15  1  0
 14 21  1  0
 15 16  2  0
 15 20  1  0
 16 17  1  0
 16 43  1  0
 17 18  2  0
 17 44  1  0
 18 19  1  0
 18 45  1  0
 19 20  2  0
 19 46  1  0
 20 47  1  0
 22 23  2  0
 22 24  2  0
 22 25  1  0
 25 26  2  0
 25 31  1  0
 26 27  1  0
 26 48  1  0
 27 28  2  0
 27 49  1  0
 28 29  1  0
 28 30  1  0
 30 31  2  0
 30 50  1  0
 31 51  1  0
 32 33  2  0
 32 52  1  0
 33 34  1  0
 34 53  1  0
 34 54  1  0
 34 55  1  0
M  END

