
     RDKit          3D

 35 35  0  0  0  0  0  0  0  0999 V2000
    2.4343   -2.0146    0.4640 C   0  0  0  0  0  0  0  0  0  0  0  0
    2.2757   -1.6172   -0.8785 O   0  0  0  0  0  0  0  0  0  0  0  0
    3.0284   -0.4801   -1.2392 C   0  0  0  0  0  0  0  0  0  0  0  0
    4.5600   -0.6687   -1.2619 C   0  0  0  0  0  0  0  0  0  0  0  0
    5.2596    0.0897   -0.6047 O   0  0  0  0  0  0  0  0  0  0  0  0
    5.0910   -1.6798   -2.0290 N   0  0  0  0  0  0  0  0  0  0  0  0
    4.2811   -2.4534   -2.9744 C   0  0  0  0  0  0  0  0  0  0  0  0
    4.2704   -1.9324   -4.3786 C   0  0  0  0  0  0  0  0  0  0  0  0
    4.5897   -2.4815   -5.5888 C   0  0  0  0  0  0  0  0  0  0  0  0
    4.3310   -1.4703   -6.5759 C   0  0  0  0  0  0  0  0  0  0  0  0
    3.8752   -0.3723   -5.8996 C   0  0  0  0  0  0  0  0  0  0  0  0
    3.4428    0.9876   -6.3199 C   0  0  0  0  0  0  0  0  0  0  0  0
    3.8324   -0.6522   -4.5633 O   0  0  0  0  0  0  0  0  0  0  0  0
    6.5676   -1.7989   -2.0362 C   0  0  1  0  0  0  0  0  0  0  0  0
    7.0353   -3.2506   -2.1566 C   0  0  0  0  0  0  0  0  0  0  0  0
    7.2212   -0.8857   -3.0831 C   0  0  0  0  0  0  0  0  0  0  0  0
    1.7803   -2.8829    0.6297 H   0  0  0  0  0  0  0  0  0  0  0  0
    2.1401   -1.2079    1.1636 H   0  0  0  0  0  0  0  0  0  0  0  0
    3.4763   -2.3060    0.6975 H   0  0  0  0  0  0  0  0  0  0  0  0
    2.8562    0.3553   -0.5380 H   0  0  0  0  0  0  0  0  0  0  0  0
    2.6853   -0.1774   -2.2402 H   0  0  0  0  0  0  0  0  0  0  0  0
    3.2592   -2.5073   -2.5758 H   0  0  0  0  0  0  0  0  0  0  0  0
    4.6456   -3.4894   -3.0077 H   0  0  0  0  0  0  0  0  0  0  0  0
    4.9679   -3.4878   -5.7579 H   0  0  0  0  0  0  0  0  0  0  0  0
    4.4709   -1.5469   -7.6522 H   0  0  0  0  0  0  0  0  0  0  0  0
    3.5388    1.0928   -7.4094 H   0  0  0  0  0  0  0  0  0  0  0  0
    4.0550    1.7703   -5.8411 H   0  0  0  0  0  0  0  0  0  0  0  0
    2.3915    1.1802   -6.0460 H   0  0  0  0  0  0  0  0  0  0  0  0
    6.8679   -1.4224   -1.0483 H   0  0  0  0  0  0  0  0  0  0  0  0
    6.8673   -3.6700   -3.1618 H   0  0  0  0  0  0  0  0  0  0  0  0
    6.5354   -3.8987   -1.4191 H   0  0  0  0  0  0  0  0  0  0  0  0
    8.1184   -3.2991   -1.9653 H   0  0  0  0  0  0  0  0  0  0  0  0
    6.9687   -1.1934   -4.1096 H   0  0  0  0  0  0  0  0  0  0  0  0
    8.3181   -0.9160   -2.9787 H   0  0  0  0  0  0  0  0  0  0  0  0
    6.8976    0.1549   -2.9355 H   0  0  0  0  0  0  0  0  0  0  0  0
  1  2  1  0
  1 17  1  0
  1 18  1  0
  1 19  1  0
  2  3  1  0
  3  4  1  0
  3 20  1  0
  3 21  1  0
  4  5  2  0
  4  6  1  0
  6  7  1  0
  6 14  1  0
  7  8  1  0
  7 22  1  0
  7 23  1  0
  8  9  2  0
  8 13  1  0
  9 10  1  0
  9 24  1  0
 10 11  2  0
 10 25  1  0
 11 12  1  0
 11 13  1  0
 12 26  1  0
 12 27  1  0
 12 28  1  0
 14 15  1  0
 14 16  1  0
 14 29  1  1
 15 30  1  0
 15 31  1  0
 15 32  1  0
 16 33  1  0
 16 34  1  0
 16 35  1  0
M  END

