
     RDKit          3D

 41 42  0  0  0  0  0  0  0  0999 V2000
    8.5432   -3.1755    1.9882 C   0  0  0  0  0  0  0  0  0  0  0  0
    7.9680   -1.9641    1.2813 C   0  0  0  0  0  0  0  0  0  0  0  0
    6.7650   -2.3605    0.6367 O   0  0  0  0  0  0  0  0  0  0  0  0
    6.0515   -1.4535   -0.0625 C   0  0  0  0  0  0  0  0  0  0  0  0
    6.3889   -0.1144   -0.2328 C   0  0  0  0  0  0  0  0  0  0  0  0
    5.5779    0.7764   -0.9864 C   0  0  0  0  0  0  0  0  0  0  0  0
    6.0241    2.1500   -1.0958 C   0  0  0  0  0  0  0  0  0  0  0  0
    5.4878    3.2302   -1.7261 C   0  0  0  0  0  0  0  0  0  0  0  0
    4.0132    3.3728   -2.6774 S   0  0  0  0  0  0  0  0  0  0  0  0
    4.3273    5.1170   -3.0042 C   0  0  0  0  0  0  0  0  0  0  0  0
    3.6475    5.7483   -3.7632 O   0  0  0  0  0  0  0  0  0  0  0  0
    5.4693    5.5493   -2.2987 N   0  0  0  0  0  0  0  0  0  0  0  0
    6.0656    6.9180   -2.3935 C   0  0  1  0  0  0  0  0  0  0  0  0
    5.3382    7.8675   -3.3464 C   0  0  0  0  0  0  0  0  0  0  0  0
    3.9656    8.2987   -2.8294 C   0  0  0  0  0  0  0  0  0  0  0  0
    3.4698    7.9032   -1.8124 O   0  0  0  0  0  0  0  0  0  0  0  0
    3.3232    9.1906   -3.6116 O   0  0  0  0  0  0  0  0  0  0  0  0
    6.2919    7.6920   -1.0405 C   0  0  0  0  0  0  0  0  0  0  0  0
    6.1811    8.8893   -1.0235 O   0  0  0  0  0  0  0  0  0  0  0  0
    6.7018    7.0040    0.0128 O   0  0  0  0  0  0  0  0  0  0  0  0
    6.1720    4.5329   -1.6543 C   0  0  0  0  0  0  0  0  0  0  0  0
    7.2447    4.7254   -1.0843 O   0  0  0  0  0  0  0  0  0  0  0  0
    4.4018    0.2692   -1.5708 C   0  0  0  0  0  0  0  0  0  0  0  0
    4.0555   -1.0708   -1.4063 C   0  0  0  0  0  0  0  0  0  0  0  0
    4.8575   -1.9423   -0.6635 C   0  0  0  0  0  0  0  0  0  0  0  0
    4.5644   -3.2441   -0.4766 O   0  0  0  0  0  0  0  0  0  0  0  0
    9.4795   -2.9060    2.5007 H   0  0  0  0  0  0  0  0  0  0  0  0
    8.7573   -3.9800    1.2685 H   0  0  0  0  0  0  0  0  0  0  0  0
    7.8340   -3.5618    2.7358 H   0  0  0  0  0  0  0  0  0  0  0  0
    8.6813   -1.5686    0.5334 H   0  0  0  0  0  0  0  0  0  0  0  0
    7.7570   -1.1507    2.0012 H   0  0  0  0  0  0  0  0  0  0  0  0
    7.2995    0.2756    0.2215 H   0  0  0  0  0  0  0  0  0  0  0  0
    6.9630    2.3845   -0.5830 H   0  0  0  0  0  0  0  0  0  0  0  0
    7.0850    6.7542   -2.7865 H   0  0  0  0  0  0  0  0  0  0  0  0
    5.2347    7.4357   -4.3512 H   0  0  0  0  0  0  0  0  0  0  0  0
    5.9683    8.7662   -3.4227 H   0  0  0  0  0  0  0  0  0  0  0  0
    3.8516    9.4067   -4.3928 H   0  0  0  0  0  0  0  0  0  0  0  0
    7.0082    6.1026   -0.2569 H   0  0  0  0  0  0  0  0  0  0  0  0
    3.7427    0.9079   -2.1581 H   0  0  0  0  0  0  0  0  0  0  0  0
    3.1390   -1.4562   -1.8635 H   0  0  0  0  0  0  0  0  0  0  0  0
    3.7348   -3.4569   -0.9254 H   0  0  0  0  0  0  0  0  0  0  0  0
  1  2  1  0
  1 27  1  0
  1 28  1  0
  1 29  1  0
  2  3  1  0
  2 30  1  0
  2 31  1  0
  3  4  1  0
  4  5  2  0
  4 25  1  0
  5  6  1  0
  5 32  1  0
  6  7  1  0
  6 23  2  0
  7  8  2  0
  7 33  1  0
  8  9  1  0
  8 21  1  0
  9 10  2  0
 10 11  1  0
 10 12  1  0
 12 13  1  0
 12 21  1  0
 13 14  1  0
 13 18  1  0
 13 34  1  6
 14 15  1  0
 14 35  1  0
 14 36  1  0
 15 16  2  0
 15 17  1  0
 17 37  1  0
 18 19  2  0
 18 20  1  0
 20 38  1  0
 21 22  2  0
 23 24  1  0
 23 39  1  0
 24 25  2  0
 24 40  1  0
 25 26  1  0
 26 41  1  0
M  CHG  2   9   1  11  -1
M  END

