
     RDKit          3D

 84 87  0  0  0  0  0  0  0  0999 V2000
   21.3230   -2.6813    4.7250 N   0  0  0  0  0  0  0  0  0  0  0  0
   20.7828   -1.4510    4.8461 C   0  0  0  0  0  0  0  0  0  0  0  0
   21.0770   -0.6502    5.7256 O   0  0  0  0  0  0  0  0  0  0  0  0
   19.6708   -1.0828    3.8387 C   0  0  2  0  0  0  0  0  0  0  0  0
   19.6755    0.0113    3.8646 H   0  0  0  0  0  0  0  0  0  0  0  0
   18.2853   -1.5730    4.3350 C   0  0  0  0  0  0  0  0  0  0  0  0
   17.7681   -0.8148    5.5715 C   0  0  0  0  0  0  0  0  0  0  0  0
   16.9804    0.4696    5.2674 C   0  0  0  0  0  0  0  0  0  0  0  0
   17.7218    1.5048    4.5471 N   0  0  0  0  0  0  0  0  0  0  0  0
   17.4954    1.8078    3.2390 C   0  0  0  0  0  0  0  0  0  0  0  0
   16.6354    1.2748    2.5562 O   0  0  0  0  0  0  0  0  0  0  0  0
   18.4185    2.9077    2.6474 C   0  0  2  0  0  0  0  0  0  0  0  0
   19.4484    2.6729    2.9533 H   0  0  0  0  0  0  0  0  0  0  0  0
   18.0990    4.3309    3.1673 C   0  0  0  0  0  0  0  0  0  0  0  0
   16.7843    4.9183    2.7051 C   0  0  0  0  0  0  0  0  0  0  0  0
   15.5646    4.5240    3.2842 C   0  0  0  0  0  0  0  0  0  0  0  0
   14.3546    5.0532    2.8397 C   0  0  0  0  0  0  0  0  0  0  0  0
   14.3720    5.9819    1.7987 C   0  0  0  0  0  0  0  0  0  0  0  0
   13.0938    6.5184    1.2895 N   0  0  0  0  0  0  0  0  0  0  0  0
   12.0897    6.3061    1.9466 O   0  0  0  0  0  0  0  0  0  0  0  0
   13.1264    7.1343    0.2342 O   0  0  0  0  0  0  0  0  0  0  0  0
   15.5628    6.4110    1.2142 C   0  0  0  0  0  0  0  0  0  0  0  0
   16.7638    5.8739    1.6753 C   0  0  0  0  0  0  0  0  0  0  0  0
   18.3904    2.8284    1.1957 N   0  0  0  0  0  0  0  0  0  0  0  0
   19.1281    1.8753    0.5847 C   0  0  0  0  0  0  0  0  0  0  0  0
   19.9972    1.2385    1.1866 O   0  0  0  0  0  0  0  0  0  0  0  0
   18.8390    1.5734   -0.9012 C   0  0  2  0  0  0  0  0  0  0  0  0
   19.0076    2.4906   -1.4942 H   0  0  0  0  0  0  0  0  0  0  0  0
   17.3525    1.1184   -1.1052 C   0  0  0  0  0  0  0  0  0  0  0  0
   16.4565    2.1669   -1.6648 C   0  0  0  0  0  0  0  0  0  0  0  0
   15.8638    2.3228   -2.8859 C   0  0  0  0  0  0  0  0  0  0  0  0
   15.1076    3.5417   -2.8238 C   0  0  0  0  0  0  0  0  0  0  0  0
   15.3007    4.0475   -1.5737 C   0  0  0  0  0  0  0  0  0  0  0  0
   16.1226    3.2240   -0.8579 O   0  0  0  0  0  0  0  0  0  0  0  0
   19.7964    0.5479   -1.2746 N   0  0  0  0  0  0  0  0  0  0  0  0
   19.8392   -0.1322   -2.4530 C   0  0  0  0  0  0  0  0  0  0  0  0
   19.0933    0.0951   -3.3939 O   0  0  0  0  0  0  0  0  0  0  0  0
   20.8926   -1.2671   -2.4947 C   0  0  2  0  0  0  0  0  0  0  0  0
   21.3909   -1.3314   -1.5179 H   0  0  0  0  0  0  0  0  0  0  0  0
   21.9862   -0.9781   -3.5502 C   0  0  0  0  0  0  0  0  0  0  0  0
   21.5357   -1.0119   -4.9984 C   0  0  1  0  0  0  0  0  0  0  0  0
   22.5569   -1.2007   -6.0903 C   0  0  0  0  0  0  0  0  0  0  0  0
   21.5723   -2.3015   -5.7917 C   0  0  0  0  0  0  0  0  0  0  0  0
   20.2310   -2.5394   -2.7393 N   0  0  0  0  0  0  0  0  0  0  0  0
   20.0362   -3.6390   -1.9380 C   0  0  0  0  0  0  0  0  0  0  0  0
   19.6341   -4.6921   -2.4077 O   0  0  0  0  0  0  0  0  0  0  0  0
   20.2618   -3.5669   -0.4560 C   0  0  0  0  0  0  0  0  0  0  0  0
   19.9206   -2.5470    0.3443 C   0  0  0  0  0  0  0  0  0  0  0  0
   19.9773   -2.6266    1.8389 C   0  0  0  0  0  0  0  0  0  0  0  0
   20.0744   -3.6949    2.4454 O   0  0  0  0  0  0  0  0  0  0  0  0
   19.9110   -1.4075    2.4338 N   0  0  0  0  0  0  0  0  0  0  0  0
   22.0223   -2.9591    5.4041 H   0  0  0  0  0  0  0  0  0  0  0  0
   20.9913   -3.3259    3.9993 H   0  0  0  0  0  0  0  0  0  0  0  0
   18.3482   -2.6513    4.5468 H   0  0  0  0  0  0  0  0  0  0  0  0
   17.5718   -1.4578    3.5025 H   0  0  0  0  0  0  0  0  0  0  0  0
   18.6077   -0.5918    6.2513 H   0  0  0  0  0  0  0  0  0  0  0  0
   17.0827   -1.4676    6.1376 H   0  0  0  0  0  0  0  0  0  0  0  0
   16.6109    0.8993    6.2143 H   0  0  0  0  0  0  0  0  0  0  0  0
   16.1045    0.2394    4.6444 H   0  0  0  0  0  0  0  0  0  0  0  0
   18.5322    1.9071    5.0074 H   0  0  0  0  0  0  0  0  0  0  0  0
   18.1221    4.2960    4.2680 H   0  0  0  0  0  0  0  0  0  0  0  0
   18.9224    4.9904    2.8539 H   0  0  0  0  0  0  0  0  0  0  0  0
   15.5595    3.7938    4.0963 H   0  0  0  0  0  0  0  0  0  0  0  0
   13.4013    4.7570    3.2769 H   0  0  0  0  0  0  0  0  0  0  0  0
   15.5334    7.1517    0.4153 H   0  0  0  0  0  0  0  0  0  0  0  0
   17.7043    6.2057    1.2281 H   0  0  0  0  0  0  0  0  0  0  0  0
   17.5543    3.1685    0.7176 H   0  0  0  0  0  0  0  0  0  0  0  0
   17.3566    0.2947   -1.8274 H   0  0  0  0  0  0  0  0  0  0  0  0
   16.9472    0.7374   -0.1528 H   0  0  0  0  0  0  0  0  0  0  0  0
   15.9640    1.6420   -3.7284 H   0  0  0  0  0  0  0  0  0  0  0  0
   14.4947    3.9812   -3.6080 H   0  0  0  0  0  0  0  0  0  0  0  0
   14.9279    4.9277   -1.0589 H   0  0  0  0  0  0  0  0  0  0  0  0
   20.4734    0.3457   -0.5430 H   0  0  0  0  0  0  0  0  0  0  0  0
   22.4174    0.0130   -3.3200 H   0  0  0  0  0  0  0  0  0  0  0  0
   22.7961   -1.7129   -3.4010 H   0  0  0  0  0  0  0  0  0  0  0  0
   20.7040   -0.3382   -5.2221 H   0  0  0  0  0  0  0  0  0  0  0  0
   23.5999   -1.3561   -5.7958 H   0  0  0  0  0  0  0  0  0  0  0  0
   22.4364   -0.6285   -7.0143 H   0  0  0  0  0  0  0  0  0  0  0  0
   21.9504   -3.2026   -5.2988 H   0  0  0  0  0  0  0  0  0  0  0  0
   20.7691   -2.4914   -6.5096 H   0  0  0  0  0  0  0  0  0  0  0  0
   19.9486   -2.7079   -3.7020 H   0  0  0  0  0  0  0  0  0  0  0  0
   20.5822   -4.5121   -0.0070 H   0  0  0  0  0  0  0  0  0  0  0  0
   19.5396   -1.6142   -0.0742 H   0  0  0  0  0  0  0  0  0  0  0  0
   19.9326   -0.5862    1.8314 H   0  0  0  0  0  0  0  0  0  0  0  0
  1  2  1  0
  1 52  1  0
  1 53  1  0
  2  3  2  0
  2  4  1  0
  4  5  1  6
  4  6  1  0
  4 51  1  0
  6  7  1  0
  6 54  1  0
  6 55  1  0
  7  8  1  0
  7 56  1  0
  7 57  1  0
  8  9  1  0
  8 58  1  0
  8 59  1  0
  9 10  1  0
  9 60  1  0
 10 11  2  0
 10 12  1  0
 12 13  1  1
 12 14  1  0
 12 24  1  0
 14 15  1  0
 14 61  1  0
 14 62  1  0
 15 16  2  0
 15 23  1  0
 16 17  1  0
 16 63  1  0
 17 18  2  0
 17 64  1  0
 18 19  1  0
 18 22  1  0
 19 20  2  0
 19 21  1  0
 22 23  2  0
 22 65  1  0
 23 66  1  0
 24 25  1  0
 24 67  1  0
 25 26  2  0
 25 27  1  0
 27 28  1  6
 27 29  1  0
 27 35  1  0
 29 30  1  0
 29 68  1  0
 29 69  1  0
 30 31  2  0
 30 34  1  0
 31 32  1  0
 31 70  1  0
 32 33  2  0
 32 71  1  0
 33 34  1  0
 33 72  1  0
 35 36  1  0
 35 73  1  0
 36 37  2  0
 36 38  1  0
 38 39  1  1
 38 40  1  0
 38 44  1  0
 40 41  1  0
 40 74  1  0
 40 75  1  0
 41 42  1  0
 41 43  1  0
 41 76  1  6
 42 43  1  0
 42 77  1  0
 42 78  1  0
 43 79  1  0
 43 80  1  0
 44 45  1  0
 44 81  1  0
 45 46  2  0
 45 47  1  0
 47 48  2  0
 47 82  1  0
 48 49  1  0
 48 83  1  0
 49 50  2  0
 49 51  1  0
 51 84  1  0
M  CHG  2  19   1  21  -1
M  END

