
     RDKit          3D

 32 33  0  0  0  0  0  0  0  0999 V2000
    0.6099    0.6176    0.5426 N   0  0  0  0  0  0  0  0  0  0  0  0
    1.8468    0.1635    0.9164 C   0  0  0  0  0  0  0  0  0  0  0  0
    2.1056   -1.0277    0.9708 O   0  0  0  0  0  0  0  0  0  0  0  0
    2.8708    1.2215    1.2480 C   0  0  0  0  0  0  0  0  0  0  0  0
    2.7473    2.5622    0.8550 C   0  0  0  0  0  0  0  0  0  0  0  0
    3.7579    3.4671    1.1990 C   0  0  0  0  0  0  0  0  0  0  0  0
    4.8704    3.0531    1.9244 C   0  0  0  0  0  0  0  0  0  0  0  0
    5.0141    1.7027    2.3215 C   0  0  0  0  0  0  0  0  0  0  0  0
    6.1170    1.3155    3.0600 N   0  0  0  0  0  0  0  0  0  0  0  0
    6.4568   -0.0688    3.3159 C   0  0  0  0  0  0  0  0  0  0  0  0
    7.7093   -0.1801    4.1789 C   0  0  1  0  0  0  0  0  0  0  0  0
    7.5934    0.3708    5.6096 C   0  0  0  0  0  0  0  0  0  0  0  0
    8.7452   -0.3484    6.3143 C   0  0  0  0  0  0  0  0  0  0  0  0
    8.8707   -1.6128    5.6731 O   0  0  0  0  0  0  0  0  0  0  0  0
    8.1450   -1.6292    4.4533 C   0  0  0  0  0  0  0  0  0  0  0  0
    4.0003    0.7956    1.9581 C   0  0  0  0  0  0  0  0  0  0  0  0
   -0.1071   -0.0836    0.3975 H   0  0  0  0  0  0  0  0  0  0  0  0
    0.3162    1.5665    0.7293 H   0  0  0  0  0  0  0  0  0  0  0  0
    1.9007    2.9002    0.2542 H   0  0  0  0  0  0  0  0  0  0  0  0
    3.6797    4.5128    0.8896 H   0  0  0  0  0  0  0  0  0  0  0  0
    5.6477    3.7756    2.1911 H   0  0  0  0  0  0  0  0  0  0  0  0
    6.8970    1.9622    3.0439 H   0  0  0  0  0  0  0  0  0  0  0  0
    6.6031   -0.6357    2.3719 H   0  0  0  0  0  0  0  0  0  0  0  0
    5.6178   -0.5591    3.8414 H   0  0  0  0  0  0  0  0  0  0  0  0
    8.5402    0.3403    3.6648 H   0  0  0  0  0  0  0  0  0  0  0  0
    6.6233    0.0735    6.0434 H   0  0  0  0  0  0  0  0  0  0  0  0
    7.6652    1.4667    5.6716 H   0  0  0  0  0  0  0  0  0  0  0  0
    8.5646   -0.5051    7.3909 H   0  0  0  0  0  0  0  0  0  0  0  0
    9.6902    0.2224    6.2136 H   0  0  0  0  0  0  0  0  0  0  0  0
    7.2594   -2.2902    4.5482 H   0  0  0  0  0  0  0  0  0  0  0  0
    8.7814   -2.0404    3.6508 H   0  0  0  0  0  0  0  0  0  0  0  0
    4.0604   -0.2628    2.2094 H   0  0  0  0  0  0  0  0  0  0  0  0
  1  2  1  0
  1 17  1  0
  1 18  1  0
  2  3  2  0
  2  4  1  0
  4  5  2  0
  4 16  1  0
  5  6  1  0
  5 19  1  0
  6  7  2  0
  6 20  1  0
  7  8  1  0
  7 21  1  0
  8  9  1  0
  8 16  2  0
  9 10  1  0
  9 22  1  0
 10 11  1  0
 10 23  1  0
 10 24  1  0
 11 12  1  0
 11 15  1  0
 11 25  1  6
 12 13  1  0
 12 26  1  0
 12 27  1  0
 13 14  1  0
 13 28  1  0
 13 29  1  0
 14 15  1  0
 15 30  1  0
 15 31  1  0
 16 32  1  0
M  END

