
     RDKit          3D

 40 42  0  0  0  0  0  0  0  0999 V2000
   14.5216   -0.9321   -1.6540 Cl  0  0  0  0  0  0  0  0  0  0  0  0
   12.9184   -1.4824   -2.0697 C   0  0  0  0  0  0  0  0  0  0  0  0
   12.3193   -1.0423   -3.2556 C   0  0  0  0  0  0  0  0  0  0  0  0
   11.0344   -1.4707   -3.5827 C   0  0  0  0  0  0  0  0  0  0  0  0
   10.3511   -2.3499   -2.7298 C   0  0  0  0  0  0  0  0  0  0  0  0
    9.0518   -2.7879   -3.0833 N   0  0  0  0  0  0  0  0  0  0  0  0
    8.7105   -3.0297   -4.3953 N   0  0  0  0  0  0  0  0  0  0  0  0
    7.4912   -3.3989   -4.3906 N   0  0  0  0  0  0  0  0  0  0  0  0
    6.9658   -3.4139   -3.1444 N   0  0  0  0  0  0  0  0  0  0  0  0
    7.9376   -3.0262   -2.3296 C   0  0  0  0  0  0  0  0  0  0  0  0
    7.8468   -2.8952   -0.9811 N   0  0  0  0  0  0  0  0  0  0  0  0
    6.5467   -3.0165   -0.3138 C   0  0  0  0  0  0  0  0  0  0  0  0
    6.1196   -4.4706   -0.0967 C   0  0  0  0  0  0  0  0  0  0  0  0
    4.7008   -4.5907    0.4687 C   0  0  0  0  0  0  0  0  0  0  0  0
    3.7002   -3.9339   -0.3482 N   0  0  0  0  0  0  0  0  0  0  0  0
    3.4953   -4.4826   -1.6881 C   0  0  0  0  0  0  0  0  0  0  0  0
    2.2249   -3.7683   -2.1859 C   0  0  0  0  0  0  0  0  0  0  0  0
    1.4812   -3.3402   -0.8904 C   0  0  0  0  0  0  0  0  0  0  0  0
    2.3730   -3.8640    0.2481 C   0  0  0  0  0  0  0  0  0  0  0  0
   10.9651   -2.8056   -1.5543 C   0  0  0  0  0  0  0  0  0  0  0  0
   12.2461   -2.3631   -1.2183 C   0  0  0  0  0  0  0  0  0  0  0  0
   12.8587   -0.3604   -3.9148 H   0  0  0  0  0  0  0  0  0  0  0  0
   10.5529   -1.1394   -4.5033 H   0  0  0  0  0  0  0  0  0  0  0  0
    8.5514   -2.3212   -0.5351 H   0  0  0  0  0  0  0  0  0  0  0  0
    5.7703   -2.4964   -0.8956 H   0  0  0  0  0  0  0  0  0  0  0  0
    6.6316   -2.4971    0.6538 H   0  0  0  0  0  0  0  0  0  0  0  0
    6.8244   -4.9691    0.5902 H   0  0  0  0  0  0  0  0  0  0  0  0
    6.1870   -5.0036   -1.0579 H   0  0  0  0  0  0  0  0  0  0  0  0
    4.6678   -4.1325    1.4739 H   0  0  0  0  0  0  0  0  0  0  0  0
    4.4659   -5.6729    0.6153 H   0  0  0  0  0  0  0  0  0  0  0  0
    3.3271   -5.5852   -1.6447 H   0  0  0  0  0  0  0  0  0  0  0  0
    4.3674   -4.3029   -2.3347 H   0  0  0  0  0  0  0  0  0  0  0  0
    1.6185   -4.4277   -2.8246 H   0  0  0  0  0  0  0  0  0  0  0  0
    2.4907   -2.8882   -2.7900 H   0  0  0  0  0  0  0  0  0  0  0  0
    0.4619   -3.7502   -0.8272 H   0  0  0  0  0  0  0  0  0  0  0  0
    1.3954   -2.2443   -0.8379 H   0  0  0  0  0  0  0  0  0  0  0  0
    2.0233   -4.8716    0.5788 H   0  0  0  0  0  0  0  0  0  0  0  0
    2.3740   -3.2142    1.1393 H   0  0  0  0  0  0  0  0  0  0  0  0
   10.4542   -3.5244   -0.9114 H   0  0  0  0  0  0  0  0  0  0  0  0
   12.7307   -2.7139   -0.3059 H   0  0  0  0  0  0  0  0  0  0  0  0
  1  2  1  0
  2  3  2  0
  2 21  1  0
  3  4  1  0
  3 22  1  0
  4  5  2  0
  4 23  1  0
  5  6  1  0
  5 20  1  0
  6  7  1  0
  6 10  1  0
  7  8  2  0
  8  9  1  0
  9 10  2  0
 10 11  1  0
 11 12  1  0
 11 24  1  0
 12 13  1  0
 12 25  1  0
 12 26  1  0
 13 14  1  0
 13 27  1  0
 13 28  1  0
 14 15  1  0
 14 29  1  0
 14 30  1  0
 15 16  1  0
 15 19  1  0
 16 17  1  0
 16 31  1  0
 16 32  1  0
 17 18  1  0
 17 33  1  0
 17 34  1  0
 18 19  1  0
 18 35  1  0
 18 36  1  0
 19 37  1  0
 19 38  1  0
 20 21  2  0
 20 39  1  0
 21 40  1  0
M  END

