
     RDKit          3D

 32 33  0  0  0  0  0  0  0  0999 V2000
    0.5992   -0.7241    0.2312 O   0  0  0  0  0  0  0  0  0  0  0  0
    1.7983   -0.5839    0.1541 C   0  0  0  0  0  0  0  0  0  0  0  0
    2.4282   -0.0748   -1.1437 C   0  0  0  0  0  0  0  0  0  0  0  0
    3.7502   -1.2015   -1.7691 S   0  0  0  0  0  0  0  0  0  0  0  0
    4.6194   -0.1334   -2.9167 C   0  0  0  0  0  0  0  0  0  0  0  0
    4.7092   -0.5208   -4.2614 C   0  0  0  0  0  0  0  0  0  0  0  0
    5.4413    0.2580   -5.1629 C   0  0  0  0  0  0  0  0  0  0  0  0
    6.0723    1.4306   -4.7438 C   0  0  0  0  0  0  0  0  0  0  0  0
    5.9728    1.8094   -3.4003 C   0  0  0  0  0  0  0  0  0  0  0  0
    6.7677    3.2699   -2.8568 Cl  0  0  0  0  0  0  0  0  0  0  0  0
    5.2660    1.0336   -2.4796 C   0  0  0  0  0  0  0  0  0  0  0  0
    2.7173   -0.8417    1.3486 C   0  0  0  0  0  0  0  0  0  0  0  0
    3.4090    0.4217    1.8260 C   0  0  0  0  0  0  0  0  0  0  0  0
    2.6719    1.4446    2.4425 C   0  0  0  0  0  0  0  0  0  0  0  0
    3.2867    2.6217    2.8732 C   0  0  0  0  0  0  0  0  0  0  0  0
    4.6657    2.8032    2.6927 C   0  0  0  0  0  0  0  0  0  0  0  0
    5.3187    3.9237    3.0925 O   0  0  0  0  0  0  0  0  0  0  0  0
    5.4158    1.7906    2.0771 C   0  0  0  0  0  0  0  0  0  0  0  0
    4.7889    0.6195    1.6515 C   0  0  0  0  0  0  0  0  0  0  0  0
    2.8808    0.9088   -0.9436 H   0  0  0  0  0  0  0  0  0  0  0  0
    1.6300    0.0323   -1.8902 H   0  0  0  0  0  0  0  0  0  0  0  0
    4.1994   -1.4265   -4.5953 H   0  0  0  0  0  0  0  0  0  0  0  0
    5.5111   -0.0462   -6.2103 H   0  0  0  0  0  0  0  0  0  0  0  0
    6.6368    2.0498   -5.4424 H   0  0  0  0  0  0  0  0  0  0  0  0
    5.2313    1.3365   -1.4318 H   0  0  0  0  0  0  0  0  0  0  0  0
    3.4724   -1.5910    1.0637 H   0  0  0  0  0  0  0  0  0  0  0  0
    2.0826   -1.2714    2.1376 H   0  0  0  0  0  0  0  0  0  0  0  0
    1.5956    1.3202    2.5925 H   0  0  0  0  0  0  0  0  0  0  0  0
    2.6928    3.4046    3.3560 H   0  0  0  0  0  0  0  0  0  0  0  0
    4.6924    4.5363    3.5000 H   0  0  0  0  0  0  0  0  0  0  0  0
    6.4896    1.9386    1.9456 H   0  0  0  0  0  0  0  0  0  0  0  0
    5.3864   -0.1614    1.1733 H   0  0  0  0  0  0  0  0  0  0  0  0
  1  2  2  0
  2  3  1  0
  2 12  1  0
  3  4  1  0
  3 20  1  0
  3 21  1  0
  4  5  1  0
  5  6  2  0
  5 11  1  0
  6  7  1  0
  6 22  1  0
  7  8  2  0
  7 23  1  0
  8  9  1  0
  8 24  1  0
  9 10  1  0
  9 11  2  0
 11 25  1  0
 12 13  1  0
 12 26  1  0
 12 27  1  0
 13 14  2  0
 13 19  1  0
 14 15  1  0
 14 28  1  0
 15 16  2  0
 15 29  1  0
 16 17  1  0
 16 18  1  0
 17 30  1  0
 18 19  2  0
 18 31  1  0
 19 32  1  0
M  END

