
     RDKit          3D

 52 54  0  0  0  0  0  0  0  0999 V2000
    1.7868    2.9046   -2.3093 O   0  0  0  0  0  0  0  0  0  0  0  0
    0.8367    3.1603   -3.0590 C   0  0  0  0  0  0  0  0  0  0  0  0
    0.1345    4.3086   -2.9231 N   0  0  0  0  0  0  0  0  0  0  0  0
    0.3657    5.2831   -1.8553 C   0  0  2  0  0  0  0  0  0  0  0  0
    0.5531    4.7059   -0.9319 H   0  0  0  0  0  0  0  0  0  0  0  0
   -0.8830    6.1643   -1.6383 C   0  0  0  0  0  0  0  0  0  0  0  0
   -1.5647    6.6585   -2.9019 C   0  0  0  0  0  0  0  0  0  0  0  0
   -2.7408    6.0354   -3.3558 C   0  0  0  0  0  0  0  0  0  0  0  0
   -3.3798    6.4621   -4.5256 C   0  0  0  0  0  0  0  0  0  0  0  0
   -2.8503    7.5246   -5.2614 C   0  0  0  0  0  0  0  0  0  0  0  0
   -1.6824    8.1556   -4.8188 C   0  0  0  0  0  0  0  0  0  0  0  0
   -1.0432    7.7285   -3.6525 C   0  0  0  0  0  0  0  0  0  0  0  0
    1.6620    6.1090   -2.0798 C   0  0  0  0  0  0  0  0  0  0  0  0
    1.6835    7.3140   -2.0825 O   0  0  0  0  0  0  0  0  0  0  0  0
    2.7656    5.3806   -2.2265 O   0  0  0  0  0  0  0  0  0  0  0  0
    0.3911    2.2411   -4.1963 C   0  0  1  0  0  0  0  0  0  0  0  0
    0.7352    2.8586   -5.5743 C   0  0  0  0  0  0  0  0  0  0  0  0
    2.2356    2.7566   -5.8557 C   0  0  0  0  0  0  0  0  0  0  0  0
    2.7066    1.3063   -5.7632 C   0  0  0  0  0  0  0  0  0  0  0  0
    2.3695    0.7200   -4.4657 N   0  0  0  0  0  0  0  0  0  0  0  0
    3.2405   -0.2386   -3.9723 C   0  0  0  0  0  0  0  0  0  0  0  0
    4.2409   -0.5648   -4.5955 O   0  0  0  0  0  0  0  0  0  0  0  0
    2.9576   -0.8922   -2.6417 C   0  0  0  0  0  0  0  0  0  0  0  0
    3.1665   -2.2788   -2.5542 C   0  0  0  0  0  0  0  0  0  0  0  0
    3.0081   -2.9433   -1.3375 C   0  0  0  0  0  0  0  0  0  0  0  0
    2.6703   -2.2246   -0.1855 C   0  0  0  0  0  0  0  0  0  0  0  0
    2.4925   -0.8402   -0.2592 C   0  0  0  0  0  0  0  0  0  0  0  0
    2.6297   -0.1728   -1.4807 C   0  0  0  0  0  0  0  0  0  0  0  0
    0.9631    0.8142   -4.0903 C   0  0  0  0  0  0  0  0  0  0  0  0
   -0.5946    4.5363   -3.5937 H   0  0  0  0  0  0  0  0  0  0  0  0
   -0.5666    7.0162   -1.0201 H   0  0  0  0  0  0  0  0  0  0  0  0
   -1.6080    5.5807   -1.0506 H   0  0  0  0  0  0  0  0  0  0  0  0
   -3.1746    5.2157   -2.7742 H   0  0  0  0  0  0  0  0  0  0  0  0
   -4.2975    5.9678   -4.8551 H   0  0  0  0  0  0  0  0  0  0  0  0
   -3.3481    7.8645   -6.1732 H   0  0  0  0  0  0  0  0  0  0  0  0
   -1.2656    8.9922   -5.3857 H   0  0  0  0  0  0  0  0  0  0  0  0
   -0.1292    8.2176   -3.3106 H   0  0  0  0  0  0  0  0  0  0  0  0
    2.5685    4.4129   -2.1343 H   0  0  0  0  0  0  0  0  0  0  0  0
   -0.7067    2.1533   -4.1209 H   0  0  0  0  0  0  0  0  0  0  0  0
    0.3889    3.9027   -5.6360 H   0  0  0  0  0  0  0  0  0  0  0  0
    0.1777    2.2989   -6.3458 H   0  0  0  0  0  0  0  0  0  0  0  0
    2.8022    3.3752   -5.1388 H   0  0  0  0  0  0  0  0  0  0  0  0
    2.4601    3.1470   -6.8615 H   0  0  0  0  0  0  0  0  0  0  0  0
    3.7910    1.2180   -5.8947 H   0  0  0  0  0  0  0  0  0  0  0  0
    2.2381    0.7117   -6.5754 H   0  0  0  0  0  0  0  0  0  0  0  0
    3.4655   -2.8245   -3.4514 H   0  0  0  0  0  0  0  0  0  0  0  0
    3.1609   -4.0244   -1.2842 H   0  0  0  0  0  0  0  0  0  0  0  0
    2.5565   -2.7426    0.7705 H   0  0  0  0  0  0  0  0  0  0  0  0
    2.2511   -0.2709    0.6424 H   0  0  0  0  0  0  0  0  0  0  0  0
    2.5000    0.9096   -1.5336 H   0  0  0  0  0  0  0  0  0  0  0  0
    0.8222    0.4207   -3.0789 H   0  0  0  0  0  0  0  0  0  0  0  0
    0.3578    0.1803   -4.7711 H   0  0  0  0  0  0  0  0  0  0  0  0
  1  2  2  0
  2  3  1  0
  2 16  1  0
  3  4  1  0
  3 30  1  0
  4  5  1  1
  4  6  1  0
  4 13  1  0
  6  7  1  0
  6 31  1  0
  6 32  1  0
  7  8  2  0
  7 12  1  0
  8  9  1  0
  8 33  1  0
  9 10  2  0
  9 34  1  0
 10 11  1  0
 10 35  1  0
 11 12  2  0
 11 36  1  0
 12 37  1  0
 13 14  2  0
 13 15  1  0
 15 38  1  0
 16 17  1  0
 16 29  1  0
 16 39  1  6
 17 18  1  0
 17 40  1  0
 17 41  1  0
 18 19  1  0
 18 42  1  0
 18 43  1  0
 19 20  1  0
 19 44  1  0
 19 45  1  0
 20 21  1  0
 20 29  1  0
 21 22  2  0
 21 23  1  0
 23 24  2  0
 23 28  1  0
 24 25  1  0
 24 46  1  0
 25 26  2  0
 25 47  1  0
 26 27  1  0
 26 48  1  0
 27 28  2  0
 27 49  1  0
 28 50  1  0
 29 51  1  0
 29 52  1  0
M  END

