
     RDKit          3D

 40 41  0  0  0  0  0  0  0  0999 V2000
    2.2074    1.3214   -0.5562 C   0  0  0  0  0  0  0  0  0  0  0  0
    3.3442    1.9625    0.2360 C   0  0  0  0  0  0  0  0  0  0  0  0
    3.1042    1.9708    1.6755 N   0  0  0  0  0  0  0  0  0  0  0  0
    2.2396    2.8670    2.1781 N   0  0  0  0  0  0  0  0  0  0  0  0
    2.1523    2.6273    3.4846 C   0  0  0  0  0  0  0  0  0  0  0  0
    1.2838    3.4479    4.3827 C   0  0  0  0  0  0  0  0  0  0  0  0
    2.9876    1.5296    3.8152 C   0  0  0  0  0  0  0  0  0  0  0  0
    3.2388    0.7780    5.5279 Br  0  0  0  0  0  0  0  0  0  0  0  0
    3.5899    1.1219    2.6292 C   0  0  0  0  0  0  0  0  0  0  0  0
    4.5787    0.0231    2.3805 C   0  0  0  0  0  0  0  0  0  0  0  0
    4.0574   -1.0753    1.5699 N   0  0  0  0  0  0  0  0  0  0  0  0
    2.8454   -1.6934    1.7953 C   0  0  0  0  0  0  0  0  0  0  0  0
    2.6858   -2.6948    0.8597 C   0  0  0  0  0  0  0  0  0  0  0  0
    3.8488   -2.6866    0.0382 C   0  0  0  0  0  0  0  0  0  0  0  0
    4.6900   -1.6821    0.4927 C   0  0  0  0  0  0  0  0  0  0  0  0
    6.0482   -1.2859   -0.0015 C   0  0  0  0  0  0  0  0  0  0  0  0
    7.2543   -1.7822    0.8318 C   0  0  1  0  0  0  0  0  0  0  0  0
    7.3826   -3.3105    0.8139 C   0  0  0  0  0  0  0  0  0  0  0  0
    8.4470   -1.0697    0.3664 N   0  0  0  0  0  0  0  0  0  0  0  0
    2.4191    1.3861   -1.6351 H   0  0  0  0  0  0  0  0  0  0  0  0
    1.2625    1.8481   -0.3553 H   0  0  0  0  0  0  0  0  0  0  0  0
    2.0847    0.2604   -0.2905 H   0  0  0  0  0  0  0  0  0  0  0  0
    3.4832    3.0123   -0.0634 H   0  0  0  0  0  0  0  0  0  0  0  0
    4.2931    1.4382    0.0550 H   0  0  0  0  0  0  0  0  0  0  0  0
    0.7643    4.2150    3.7923 H   0  0  0  0  0  0  0  0  0  0  0  0
    1.8755    3.9474    5.1673 H   0  0  0  0  0  0  0  0  0  0  0  0
    0.5312    2.8246    4.8926 H   0  0  0  0  0  0  0  0  0  0  0  0
    4.9089   -0.3524    3.3624 H   0  0  0  0  0  0  0  0  0  0  0  0
    5.4710    0.4218    1.8776 H   0  0  0  0  0  0  0  0  0  0  0  0
    2.1954   -1.3606    2.6013 H   0  0  0  0  0  0  0  0  0  0  0  0
    1.8261   -3.3570    0.7750 H   0  0  0  0  0  0  0  0  0  0  0  0
    4.0595   -3.3420   -0.8057 H   0  0  0  0  0  0  0  0  0  0  0  0
    6.1478   -0.1899   -0.0834 H   0  0  0  0  0  0  0  0  0  0  0  0
    6.1539   -1.6719   -1.0302 H   0  0  0  0  0  0  0  0  0  0  0  0
    7.0926   -1.4678    1.8793 H   0  0  0  0  0  0  0  0  0  0  0  0
    7.5701   -3.6712   -0.2129 H   0  0  0  0  0  0  0  0  0  0  0  0
    6.4684   -3.8028    1.1814 H   0  0  0  0  0  0  0  0  0  0  0  0
    8.2249   -3.6391    1.4450 H   0  0  0  0  0  0  0  0  0  0  0  0
    8.6628   -1.3502   -0.5933 H   0  0  0  0  0  0  0  0  0  0  0  0
    9.2589   -1.3427    0.9218 H   0  0  0  0  0  0  0  0  0  0  0  0
  1  2  1  0
  1 20  1  0
  1 21  1  0
  1 22  1  0
  2  3  1  0
  2 23  1  0
  2 24  1  0
  3  4  1  0
  3  9  1  0
  4  5  2  0
  5  6  1  0
  5  7  1  0
  6 25  1  0
  6 26  1  0
  6 27  1  0
  7  8  1  0
  7  9  2  0
  9 10  1  0
 10 11  1  0
 10 28  1  0
 10 29  1  0
 11 12  1  0
 11 15  1  0
 12 13  2  0
 12 30  1  0
 13 14  1  0
 13 31  1  0
 14 15  2  0
 14 32  1  0
 15 16  1  0
 16 17  1  0
 16 33  1  0
 16 34  1  0
 17 18  1  0
 17 19  1  0
 17 35  1  1
 18 36  1  0
 18 37  1  0
 18 38  1  0
 19 39  1  0
 19 40  1  0
M  END

