
     RDKit          3D

 31 31  0  0  0  0  0  0  0  0999 V2000
    3.4634   -1.1177    0.7089 C   0  0  0  0  0  0  0  0  0  0  0  0
    2.5974    0.0229    0.1624 C   0  0  1  0  0  0  0  0  0  0  0  0
    1.2627   -0.2704    0.5131 O   0  0  0  0  0  0  0  0  0  0  0  0
    3.0578    1.3612    0.7932 C   0  0  0  0  0  0  0  0  0  0  0  0
    2.5112    2.5595    0.1828 N   0  0  0  0  0  0  0  0  0  0  0  0
    1.2434    2.9715    0.3702 C   0  0  0  0  0  0  0  0  0  0  0  0
    0.3977    2.3299    1.0014 O   0  0  0  0  0  0  0  0  0  0  0  0
    0.9056    4.3001   -0.2623 C   0  0  0  0  0  0  0  0  0  0  0  0
   -0.3808    4.8269   -0.0984 C   0  0  0  0  0  0  0  0  0  0  0  0
   -0.6693    6.0562   -0.6928 C   0  0  0  0  0  0  0  0  0  0  0  0
    0.3298    6.7000   -1.4263 C   0  0  0  0  0  0  0  0  0  0  0  0
    1.5831    6.0847   -1.5341 C   0  0  0  0  0  0  0  0  0  0  0  0
    1.8660    4.9144   -0.9636 N   0  0  0  0  0  0  0  0  0  0  0  0
    2.6834    0.0824   -1.3960 C   0  0  0  0  0  0  0  0  0  0  0  0
    4.0634    0.4291   -1.9246 C   0  0  0  0  0  0  0  0  0  0  0  0
    4.5451    1.5327   -1.8611 O   0  0  0  0  0  0  0  0  0  0  0  0
    4.7869   -0.5881   -2.4449 O   0  0  0  0  0  0  0  0  0  0  0  0
    3.4381   -1.1154    1.8094 H   0  0  0  0  0  0  0  0  0  0  0  0
    4.5125   -1.0460    0.3815 H   0  0  0  0  0  0  0  0  0  0  0  0
    3.0491   -2.0814    0.3743 H   0  0  0  0  0  0  0  0  0  0  0  0
    0.8002    0.5621    0.7443 H   0  0  0  0  0  0  0  0  0  0  0  0
    4.1508    1.4425    0.7411 H   0  0  0  0  0  0  0  0  0  0  0  0
    2.7639    1.3319    1.8556 H   0  0  0  0  0  0  0  0  0  0  0  0
    3.0906    3.1089   -0.4495 H   0  0  0  0  0  0  0  0  0  0  0  0
   -1.1128    4.2658    0.4838 H   0  0  0  0  0  0  0  0  0  0  0  0
   -1.6602    6.5053   -0.5873 H   0  0  0  0  0  0  0  0  0  0  0  0
    0.1475    7.6623   -1.9098 H   0  0  0  0  0  0  0  0  0  0  0  0
    2.3887    6.5604   -2.1046 H   0  0  0  0  0  0  0  0  0  0  0  0
    1.9914    0.8634   -1.7409 H   0  0  0  0  0  0  0  0  0  0  0  0
    2.3141   -0.8803   -1.7834 H   0  0  0  0  0  0  0  0  0  0  0  0
    4.2679   -1.4044   -2.4355 H   0  0  0  0  0  0  0  0  0  0  0  0
  1  2  1  0
  1 18  1  0
  1 19  1  0
  1 20  1  0
  2  3  1  6
  2  4  1  0
  2 14  1  0
  3 21  1  0
  4  5  1  0
  4 22  1  0
  4 23  1  0
  5  6  1  0
  5 24  1  0
  6  7  2  0
  6  8  1  0
  8  9  2  0
  8 13  1  0
  9 10  1  0
  9 25  1  0
 10 11  2  0
 10 26  1  0
 11 12  1  0
 11 27  1  0
 12 13  2  0
 12 28  1  0
 14 15  1  0
 14 29  1  0
 14 30  1  0
 15 16  2  0
 15 17  1  0
 17 31  1  0
M  END

