
     RDKit          3D

 29 30  0  0  0  0  0  0  0  0999 V2000
    1.0803   -1.9888    0.3366 C   0  0  0  0  0  0  0  0  0  0  0  0
    2.5186   -1.8971    0.1710 N   0  0  0  0  0  0  0  0  0  0  0  0
    3.1624   -0.9357    1.0468 C   0  0  0  0  0  0  0  0  0  0  0  0
    4.7025   -0.9838    0.9605 C   0  0  1  0  0  0  0  0  0  0  0  0
    5.1542   -0.5584   -0.4228 C   0  0  0  0  0  0  0  0  0  0  0  0
    5.4224   -1.4929   -1.4392 C   0  0  0  0  0  0  0  0  0  0  0  0
    5.8057   -1.0336   -2.7006 C   0  0  0  0  0  0  0  0  0  0  0  0
    5.9126    0.3420   -2.9139 C   0  0  0  0  0  0  0  0  0  0  0  0
    5.6205    1.1944   -1.8444 C   0  0  0  0  0  0  0  0  0  0  0  0
    5.2507    0.7622   -0.6382 N   0  0  0  0  0  0  0  0  0  0  0  0
    5.3445   -0.2157    2.1552 C   0  0  0  0  0  0  0  0  0  0  0  0
    5.5733   -1.5684    2.8773 C   0  0  0  0  0  0  0  0  0  0  0  0
    5.2810   -2.3079    1.5463 C   0  0  0  0  0  0  0  0  0  0  0  0
    0.6626   -2.7036   -0.3901 H   0  0  0  0  0  0  0  0  0  0  0  0
    0.5378   -1.0241    0.2151 H   0  0  0  0  0  0  0  0  0  0  0  0
    0.8399   -2.3686    1.3444 H   0  0  0  0  0  0  0  0  0  0  0  0
    2.7418   -1.6836   -0.8004 H   0  0  0  0  0  0  0  0  0  0  0  0
    2.8643   -1.1726    2.0838 H   0  0  0  0  0  0  0  0  0  0  0  0
    2.8462    0.1162    0.8633 H   0  0  0  0  0  0  0  0  0  0  0  0
    5.3293   -2.5619   -1.2382 H   0  0  0  0  0  0  0  0  0  0  0  0
    6.0207   -1.7418   -3.5056 H   0  0  0  0  0  0  0  0  0  0  0  0
    6.2146    0.7484   -3.8818 H   0  0  0  0  0  0  0  0  0  0  0  0
    5.6910    2.2818   -1.9721 H   0  0  0  0  0  0  0  0  0  0  0  0
    4.7036    0.5273    2.6552 H   0  0  0  0  0  0  0  0  0  0  0  0
    6.2795    0.2833    1.8638 H   0  0  0  0  0  0  0  0  0  0  0  0
    4.8216   -1.7737    3.6548 H   0  0  0  0  0  0  0  0  0  0  0  0
    6.5690   -1.7271    3.3185 H   0  0  0  0  0  0  0  0  0  0  0  0
    4.5837   -3.1583    1.5693 H   0  0  0  0  0  0  0  0  0  0  0  0
    6.2045   -2.6231    1.0370 H   0  0  0  0  0  0  0  0  0  0  0  0
  1  2  1  0
  1 14  1  0
  1 15  1  0
  1 16  1  0
  2  3  1  0
  2 17  1  0
  4  3  1  6
  3 18  1  0
  3 19  1  0
  4  5  1  0
  4 11  1  0
  4 13  1  0
  5  6  2  0
  5 10  1  0
  6  7  1  0
  6 20  1  0
  7  8  2  0
  7 21  1  0
  8  9  1  0
  8 22  1  0
  9 10  2  0
  9 23  1  0
 11 12  1  0
 11 24  1  0
 11 25  1  0
 12 13  1  0
 12 26  1  0
 12 27  1  0
 13 28  1  0
 13 29  1  0
M  END

