
     RDKit          3D

 47 51  0  0  0  0  0  0  0  0999 V2000
    2.4860    0.1691   -1.2530 O   0  0  0  0  0  0  0  0  0  0  0  0
    2.2290    0.9221   -0.3615 C   0  0  0  0  0  0  0  0  0  0  0  0
    1.0076    1.1308    0.1265 O   0  0  0  0  0  0  0  0  0  0  0  0
    3.1194    1.7275    0.2914 O   0  0  0  0  0  0  0  0  0  0  0  0
    4.4734    1.4819    0.1414 C   0  0  0  0  0  0  0  0  0  0  0  0
    5.0928    1.6750   -1.0490 C   0  0  0  0  0  0  0  0  0  0  0  0
    6.4292    1.4418   -1.2723 N   0  0  0  0  0  0  0  0  0  0  0  0
    6.8003    1.2193   -2.6670 C   0  0  1  0  0  0  0  0  0  0  0  0
    7.2350   -0.1507   -3.1060 C   0  0  0  0  0  0  0  0  0  0  0  0
    5.8915    0.3734   -3.5297 C   0  0  0  0  0  0  0  0  0  0  0  0
    7.2607    1.1439   -0.1761 C   0  0  0  0  0  0  0  0  0  0  0  0
    8.6826    1.1667   -0.2224 C   0  0  0  0  0  0  0  0  0  0  0  0
    9.5355    1.7166   -1.6600 Cl  0  0  0  0  0  0  0  0  0  0  0  0
    9.4780    0.7846    0.8872 C   0  0  0  0  0  0  0  0  0  0  0  0
   10.8672    0.8258    0.8535 N   0  0  0  0  0  0  0  0  0  0  0  0
   11.6652    2.0073    0.5109 C   0  0  0  0  0  0  0  0  0  0  0  0
   12.7285    2.1497    1.6400 C   0  0  1  0  0  0  0  0  0  0  0  0
   12.4390    3.2722    2.6558 C   0  0  0  0  0  0  0  0  0  0  0  0
   11.4874    2.6093    3.6547 C   0  0  0  0  0  0  0  0  0  0  0  0
   12.0495    1.2684    3.7548 N   0  0  0  0  0  0  0  0  0  0  0  0
   12.6175    0.8355    2.4780 C   0  0  1  0  0  0  0  0  0  0  0  0
   11.7226   -0.0741    1.6154 C   0  0  0  0  0  0  0  0  0  0  0  0
    8.8032    0.3633    2.0626 C   0  0  0  0  0  0  0  0  0  0  0  0
    7.4295    0.3989    2.1447 C   0  0  0  0  0  0  0  0  0  0  0  0
    6.6393    0.8079    1.0587 C   0  0  0  0  0  0  0  0  0  0  0  0
    5.1766    0.9116    1.2805 C   0  0  0  0  0  0  0  0  0  0  0  0
    4.6234    0.5761    2.3227 O   0  0  0  0  0  0  0  0  0  0  0  0
    1.0777    1.7237    0.8921 H   0  0  0  0  0  0  0  0  0  0  0  0
    4.5214    1.9851   -1.9225 H   0  0  0  0  0  0  0  0  0  0  0  0
    7.2853    2.0734   -3.1456 H   0  0  0  0  0  0  0  0  0  0  0  0
    7.2496   -0.9373   -2.3468 H   0  0  0  0  0  0  0  0  0  0  0  0
    8.0494   -0.2083   -3.8324 H   0  0  0  0  0  0  0  0  0  0  0  0
    5.0012   -0.0687   -3.0731 H   0  0  0  0  0  0  0  0  0  0  0  0
    5.7528    0.6981   -4.5646 H   0  0  0  0  0  0  0  0  0  0  0  0
   11.0217    2.8943    0.4322 H   0  0  0  0  0  0  0  0  0  0  0  0
   12.1650    1.8810   -0.4656 H   0  0  0  0  0  0  0  0  0  0  0  0
   13.7261    2.2662    1.1926 H   0  0  0  0  0  0  0  0  0  0  0  0
   12.0208    4.1771    2.1890 H   0  0  0  0  0  0  0  0  0  0  0  0
   13.3709    3.5572    3.1694 H   0  0  0  0  0  0  0  0  0  0  0  0
   10.4433    2.6400    3.2748 H   0  0  0  0  0  0  0  0  0  0  0  0
   11.4881    3.1148    4.6357 H   0  0  0  0  0  0  0  0  0  0  0  0
   11.4651    0.5819    4.2222 H   0  0  0  0  0  0  0  0  0  0  0  0
   13.5977    0.3516    2.6395 H   0  0  0  0  0  0  0  0  0  0  0  0
   11.1458   -0.8032    2.1996 H   0  0  0  0  0  0  0  0  0  0  0  0
   12.3578   -0.6581    0.9177 H   0  0  0  0  0  0  0  0  0  0  0  0
    9.3923    0.0840    2.9356 H   0  0  0  0  0  0  0  0  0  0  0  0
    6.9037    0.1436    3.0668 H   0  0  0  0  0  0  0  0  0  0  0  0
  1  2  2  0
  2  3  1  0
  2  4  1  0
  3 28  1  0
  4  5  1  0
  5  6  2  0
  5 26  1  0
  6  7  1  0
  6 29  1  0
  7  8  1  0
  7 11  1  0
  8  9  1  0
  8 10  1  0
  8 30  1  6
  9 10  1  0
  9 31  1  0
  9 32  1  0
 10 33  1  0
 10 34  1  0
 11 12  1  0
 11 25  2  0
 12 13  1  0
 12 14  2  0
 14 15  1  0
 14 23  1  0
 15 16  1  0
 15 22  1  0
 16 17  1  0
 16 35  1  0
 16 36  1  0
 17 18  1  0
 17 21  1  0
 17 37  1  6
 18 19  1  0
 18 38  1  0
 18 39  1  0
 19 20  1  0
 19 40  1  0
 19 41  1  0
 20 21  1  0
 20 42  1  0
 21 22  1  0
 21 43  1  1
 22 44  1  0
 22 45  1  0
 23 24  2  0
 23 46  1  0
 24 25  1  0
 24 47  1  0
 25 26  1  0
 26 27  2  0
M  END

