
     RDKit          3D

 36 38  0  0  0  0  0  0  0  0999 V2000
    2.7657   -0.3692    3.2359 Br  0  0  0  0  0  0  0  0  0  0  0  0
    2.6478   -0.3955    1.2288 C   0  0  1  0  0  0  0  0  0  0  0  0
    3.5718    0.6753    0.6484 C   0  0  0  0  0  0  0  0  0  0  0  0
    3.1187    2.0911    0.9442 C   0  0  0  0  0  0  0  0  0  0  0  0
    1.9305    2.3985    0.3969 N   0  0  0  0  0  0  0  0  0  0  0  0
    1.4638    3.6243    0.5915 C   0  0  0  0  0  0  0  0  0  0  0  0
    2.0709    4.5991    1.2655 N   0  0  0  0  0  0  0  0  0  0  0  0
    3.2538    4.3125    1.8215 C   0  0  0  0  0  0  0  0  0  0  0  0
    3.8416    3.0291    1.7075 C   0  0  0  0  0  0  0  0  0  0  0  0
    5.1640    2.7294    2.3794 C   0  0  0  0  0  0  0  0  0  0  0  0
    6.3697    3.5244    1.8345 C   0  0  0  0  0  0  0  0  0  0  0  0
    6.4689    4.9697    2.3361 C   0  0  0  0  0  0  0  0  0  0  0  0
    5.2873    5.8830    1.9914 C   0  0  0  0  0  0  0  0  0  0  0  0
    3.9271    5.4419    2.5681 C   0  0  0  0  0  0  0  0  0  0  0  0
    2.9356   -1.7818    0.7267 C   0  0  1  0  0  0  0  0  0  0  0  0
    1.8766   -2.8483    0.7785 C   0  0  0  0  0  0  0  0  0  0  0  0
    2.2591   -2.2464   -0.5478 C   0  0  0  0  0  0  0  0  0  0  0  0
    1.6044   -0.1144    1.0342 H   0  0  0  0  0  0  0  0  0  0  0  0
    3.5264    0.5518   -0.4477 H   0  0  0  0  0  0  0  0  0  0  0  0
    4.6080    0.4842    0.9539 H   0  0  0  0  0  0  0  0  0  0  0  0
    0.4879    3.8616    0.1491 H   0  0  0  0  0  0  0  0  0  0  0  0
    5.3780    1.6562    2.3084 H   0  0  0  0  0  0  0  0  0  0  0  0
    5.0650    2.9289    3.4618 H   0  0  0  0  0  0  0  0  0  0  0  0
    6.3479    3.5077    0.7301 H   0  0  0  0  0  0  0  0  0  0  0  0
    7.2916    2.9952    2.1296 H   0  0  0  0  0  0  0  0  0  0  0  0
    7.3948    5.4208    1.9392 H   0  0  0  0  0  0  0  0  0  0  0  0
    6.5905    4.9514    3.4355 H   0  0  0  0  0  0  0  0  0  0  0  0
    5.1970    5.9909    0.8957 H   0  0  0  0  0  0  0  0  0  0  0  0
    5.5080    6.8923    2.3776 H   0  0  0  0  0  0  0  0  0  0  0  0
    3.2220    6.2842    2.5464 H   0  0  0  0  0  0  0  0  0  0  0  0
    4.0587    5.1573    3.6286 H   0  0  0  0  0  0  0  0  0  0  0  0
    3.9702   -2.1088    0.8785 H   0  0  0  0  0  0  0  0  0  0  0  0
    0.9075   -2.5753    1.2065 H   0  0  0  0  0  0  0  0  0  0  0  0
    2.1913   -3.8714    1.0007 H   0  0  0  0  0  0  0  0  0  0  0  0
    1.5487   -1.5652   -1.0263 H   0  0  0  0  0  0  0  0  0  0  0  0
    2.8464   -2.8452   -1.2496 H   0  0  0  0  0  0  0  0  0  0  0  0
  1  2  1  0
  2  3  1  0
  2 15  1  0
  2 18  1  1
  3  4  1  0
  3 19  1  0
  3 20  1  0
  4  5  2  0
  4  9  1  0
  5  6  1  0
  6  7  2  0
  6 21  1  0
  7  8  1  0
  8  9  2  0
  8 14  1  0
  9 10  1  0
 10 11  1  0
 10 22  1  0
 10 23  1  0
 11 12  1  0
 11 24  1  0
 11 25  1  0
 12 13  1  0
 12 26  1  0
 12 27  1  0
 13 14  1  0
 13 28  1  0
 13 29  1  0
 14 30  1  0
 14 31  1  0
 15 16  1  0
 15 17  1  0
 15 32  1  6
 16 17  1  0
 16 33  1  0
 16 34  1  0
 17 35  1  0
 17 36  1  0
M  END

