
     RDKit          3D

 20 21  0  0  0  0  0  0  0  0999 V2000
    1.2212    0.7659    0.4280 N   0  0  0  0  0  0  0  0  0  0  0  0
    2.3597    0.5802    0.2983 C   0  0  0  0  0  0  0  0  0  0  0  0
    3.7725    0.3627    0.1385 C   0  0  0  0  0  0  0  0  0  0  0  0
    4.6660    1.4336    0.3065 C   0  0  0  0  0  0  0  0  0  0  0  0
    6.0355    1.2106    0.1496 C   0  0  0  0  0  0  0  0  0  0  0  0
    6.5117   -0.0589   -0.1703 C   0  0  0  0  0  0  0  0  0  0  0  0
    5.6109   -1.1203   -0.3358 C   0  0  0  0  0  0  0  0  0  0  0  0
    6.2192   -2.3217   -0.6511 O   0  0  0  0  0  0  0  0  0  0  0  0
    5.6191   -3.4933   -0.8758 C   0  0  0  0  0  0  0  0  0  0  0  0
    4.3556   -3.7742   -0.8299 N   0  0  0  0  0  0  0  0  0  0  0  0
    4.1560   -5.0949   -1.1238 C   0  0  0  0  0  0  0  0  0  0  0  0
    2.3954   -5.7790   -1.1302 Br  0  0  0  0  0  0  0  0  0  0  0  0
    5.2650   -5.8425   -1.3995 C   0  0  0  0  0  0  0  0  0  0  0  0
    6.6798   -4.8323   -1.2862 S   0  0  0  0  0  0  0  0  0  0  0  0
    4.2364   -0.9282   -0.1847 C   0  0  0  0  0  0  0  0  0  0  0  0
    4.2853    2.4250    0.5567 H   0  0  0  0  0  0  0  0  0  0  0  0
    6.7404    2.0349    0.2779 H   0  0  0  0  0  0  0  0  0  0  0  0
    7.5784   -0.2523   -0.2970 H   0  0  0  0  0  0  0  0  0  0  0  0
    5.3306   -6.8973   -1.6548 H   0  0  0  0  0  0  0  0  0  0  0  0
    3.5439   -1.7560   -0.3128 H   0  0  0  0  0  0  0  0  0  0  0  0
  1  2  3  0
  2  3  1  0
  3  4  2  0
  3 15  1  0
  4  5  1  0
  4 16  1  0
  5  6  2  0
  5 17  1  0
  6  7  1  0
  6 18  1  0
  7  8  1  0
  7 15  2  0
  8  9  1  0
  9 10  2  0
  9 14  1  0
 10 11  1  0
 11 12  1  0
 11 13  2  0
 13 14  1  0
 13 19  1  0
 15 20  1  0
M  END

