
     RDKit          3D

 24 24  0  0  0  0  0  0  0  0999 V2000
    1.0434    0.2478    0.0491 C   0  0  0  0  0  0  0  0  0  0  0  0
    2.2232    0.2450    0.0319 N   0  0  0  0  0  0  0  0  0  0  0  0
    3.6021    0.2073    0.0233 C   0  0  0  0  0  0  0  0  0  0  0  0
    4.3592    1.3713   -0.1939 C   0  0  0  0  0  0  0  0  0  0  0  0
    3.6805    2.6928   -0.4230 C   0  0  0  0  0  0  0  0  0  0  0  0
    5.7541    1.2473   -0.1891 C   0  0  0  0  0  0  0  0  0  0  0  0
    6.2978   -0.0220    0.0304 C   0  0  0  0  0  0  0  0  0  0  0  0
    8.0419   -0.1895    0.0384 Cl  0  0  0  0  0  0  0  0  0  0  0  0
    5.5984   -1.1179    0.2370 N   0  0  0  0  0  0  0  0  0  0  0  0
    4.2606   -1.0416    0.2383 C   0  0  0  0  0  0  0  0  0  0  0  0
    3.5479   -2.1814    0.4514 N   0  0  0  0  0  0  0  0  0  0  0  0
    4.1492   -3.5030    0.5848 C   0  0  0  0  0  0  0  0  0  0  0  0
    4.5341   -3.8406    2.0269 C   0  0  0  0  0  0  0  0  0  0  0  0
    3.4262   -3.8169    2.8995 O   0  0  0  0  0  0  0  0  0  0  0  0
    3.0276    2.6509   -1.3101 H   0  0  0  0  0  0  0  0  0  0  0  0
    4.4141    3.4971   -0.5672 H   0  0  0  0  0  0  0  0  0  0  0  0
    3.0343    2.9565    0.4301 H   0  0  0  0  0  0  0  0  0  0  0  0
    6.4002    2.1097   -0.3492 H   0  0  0  0  0  0  0  0  0  0  0  0
    2.5406   -2.1143    0.3814 H   0  0  0  0  0  0  0  0  0  0  0  0
    5.0395   -3.5612   -0.0602 H   0  0  0  0  0  0  0  0  0  0  0  0
    3.4104   -4.2370    0.2272 H   0  0  0  0  0  0  0  0  0  0  0  0
    5.3394   -3.1564    2.3573 H   0  0  0  0  0  0  0  0  0  0  0  0
    4.9422   -4.8642    2.0537 H   0  0  0  0  0  0  0  0  0  0  0  0
    3.1142   -2.9031    2.9464 H   0  0  0  0  0  0  0  0  0  0  0  0
  1  2  2  0
  2  3  2  0
  3  4  1  0
  3 10  1  0
  4  5  1  0
  4  6  2  0
  5 15  1  0
  5 16  1  0
  5 17  1  0
  6  7  1  0
  6 18  1  0
  7  8  1  0
  7  9  2  0
  9 10  1  0
 10 11  2  0
 11 12  1  0
 11 19  1  0
 12 13  1  0
 12 20  1  0
 12 21  1  0
 13 14  1  0
 13 22  1  0
 13 23  1  0
 14 24  1  0
M  CHG  3   1  -2   2   1  11   1
M  END

