
     RDKit          3D

 50 50  0  0  0  0  0  0  0  0999 V2000
    1.2508   -0.9188    1.6784 C   0  0  0  0  0  0  0  0  0  0  0  0
    2.6142   -0.6482    1.0430 C   0  0  0  0  0  0  0  0  0  0  0  0
    2.9066   -1.5397   -0.1660 C   0  0  0  0  0  0  0  0  0  0  0  0
    4.2108   -1.2203   -0.7311 N   0  0  0  0  0  0  0  0  0  0  0  0
    4.6251   -1.8684   -1.9883 C   0  0  1  0  0  0  0  0  0  0  0  0
    4.4923   -3.4121   -1.9508 C   0  0  0  0  0  0  0  0  0  0  0  0
    3.8425   -1.1970   -3.1473 C   0  0  0  0  0  0  0  0  0  0  0  0
    4.0035   -1.7510   -4.5861 C   0  0  1  0  0  0  0  0  0  0  0  0
    3.0241   -2.8801   -4.9379 C   0  0  0  0  0  0  0  0  0  0  0  0
    3.8663   -0.6607   -5.5612 N   0  0  0  0  0  0  0  0  0  0  0  0
    2.7587    0.1233   -5.7482 C   0  0  0  0  0  0  0  0  0  0  0  0
    2.9322    1.0120   -6.6986 N   0  0  0  0  0  0  0  0  0  0  0  0
    4.2098    0.8128   -7.1677 C   0  0  0  0  0  0  0  0  0  0  0  0
    4.7782    1.6586   -8.2699 C   0  0  0  0  0  0  0  0  0  0  0  0
    4.8165   -0.2239   -6.4760 C   0  0  0  0  0  0  0  0  0  0  0  0
    6.1839   -0.8128   -6.6002 C   0  0  0  0  0  0  0  0  0  0  0  0
    6.1276   -1.5498   -2.1499 C   0  0  0  0  0  0  0  0  0  0  0  0
    6.6532   -1.1261   -3.1506 O   0  0  0  0  0  0  0  0  0  0  0  0
    6.8115   -1.8367   -1.0266 O   0  0  0  0  0  0  0  0  0  0  0  0
    8.2350   -1.5957   -1.0193 C   0  0  0  0  0  0  0  0  0  0  0  0
    9.0074   -2.7859   -1.5607 C   0  0  0  0  0  0  0  0  0  0  0  0
    1.0763   -0.2634    2.5461 H   0  0  0  0  0  0  0  0  0  0  0  0
    1.1656   -1.9614    2.0281 H   0  0  0  0  0  0  0  0  0  0  0  0
    0.4313   -0.7432    0.9614 H   0  0  0  0  0  0  0  0  0  0  0  0
    3.4098   -0.7963    1.7969 H   0  0  0  0  0  0  0  0  0  0  0  0
    2.6913    0.4044    0.7235 H   0  0  0  0  0  0  0  0  0  0  0  0
    2.1266   -1.3686   -0.9271 H   0  0  0  0  0  0  0  0  0  0  0  0
    2.8037   -2.6043    0.1411 H   0  0  0  0  0  0  0  0  0  0  0  0
    4.9314   -1.3828   -0.0306 H   0  0  0  0  0  0  0  0  0  0  0  0
    3.4354   -3.7129   -1.9024 H   0  0  0  0  0  0  0  0  0  0  0  0
    5.0054   -3.8095   -1.0624 H   0  0  0  0  0  0  0  0  0  0  0  0
    4.9394   -3.8864   -2.8379 H   0  0  0  0  0  0  0  0  0  0  0  0
    4.1427   -0.1410   -3.1478 H   0  0  0  0  0  0  0  0  0  0  0  0
    2.7733   -1.2146   -2.8832 H   0  0  0  0  0  0  0  0  0  0  0  0
    5.0298   -2.1193   -4.7029 H   0  0  0  0  0  0  0  0  0  0  0  0
    1.9802   -2.5392   -4.8505 H   0  0  0  0  0  0  0  0  0  0  0  0
    3.1507   -3.7468   -4.2748 H   0  0  0  0  0  0  0  0  0  0  0  0
    3.1818   -3.2164   -5.9740 H   0  0  0  0  0  0  0  0  0  0  0  0
    1.8518   -0.0018   -5.1561 H   0  0  0  0  0  0  0  0  0  0  0  0
    3.9842    2.3088   -8.6635 H   0  0  0  0  0  0  0  0  0  0  0  0
    5.1702    1.0546   -9.1055 H   0  0  0  0  0  0  0  0  0  0  0  0
    5.6006    2.3074   -7.9210 H   0  0  0  0  0  0  0  0  0  0  0  0
    6.7588   -0.2508   -7.3499 H   0  0  0  0  0  0  0  0  0  0  0  0
    6.1629   -1.8674   -6.9302 H   0  0  0  0  0  0  0  0  0  0  0  0
    6.7371   -0.7747   -5.6479 H   0  0  0  0  0  0  0  0  0  0  0  0
    8.4782   -1.4055    0.0359 H   0  0  0  0  0  0  0  0  0  0  0  0
    8.4414   -0.6889   -1.6059 H   0  0  0  0  0  0  0  0  0  0  0  0
    8.7708   -3.7015   -0.9967 H   0  0  0  0  0  0  0  0  0  0  0  0
   10.0895   -2.5985   -1.4724 H   0  0  0  0  0  0  0  0  0  0  0  0
    8.7769   -2.9524   -2.6233 H   0  0  0  0  0  0  0  0  0  0  0  0
  1  2  1  0
  1 22  1  0
  1 23  1  0
  1 24  1  0
  2  3  1  0
  2 25  1  0
  2 26  1  0
  3  4  1  0
  3 27  1  0
  3 28  1  0
  4  5  1  0
  4 29  1  0
  5  6  1  0
  5  7  1  0
  5 17  1  6
  6 30  1  0
  6 31  1  0
  6 32  1  0
  7  8  1  0
  7 33  1  0
  7 34  1  0
  8  9  1  0
  8 10  1  0
  8 35  1  1
  9 36  1  0
  9 37  1  0
  9 38  1  0
 10 11  1  0
 10 15  1  0
 11 12  2  0
 11 39  1  0
 12 13  1  0
 13 14  1  0
 13 15  2  0
 14 40  1  0
 14 41  1  0
 14 42  1  0
 15 16  1  0
 16 43  1  0
 16 44  1  0
 16 45  1  0
 17 18  2  0
 17 19  1  0
 19 20  1  0
 20 21  1  0
 20 46  1  0
 20 47  1  0
 21 48  1  0
 21 49  1  0
 21 50  1  0
M  END

