
     RDKit          3D

 27 28  0  0  0  0  0  0  0  0999 V2000
    1.3787    0.6063   -1.0905 C   0  0  0  0  0  0  0  0  0  0  0  0
    2.6384    0.1924   -0.4127 C   0  0  0  0  0  0  0  0  0  0  0  0
    3.5893    1.1606   -0.2646 O   0  0  0  0  0  0  0  0  0  0  0  0
    4.6517    0.6036    0.3693 C   0  0  0  0  0  0  0  0  0  0  0  0
    4.4066   -0.7094    0.6353 C   0  0  0  0  0  0  0  0  0  0  0  0
    3.0850   -0.9913    0.1246 C   0  0  0  0  0  0  0  0  0  0  0  0
    2.3607   -2.3058    0.1758 C   0  0  1  0  0  0  0  0  0  0  0  0
    3.0477   -3.4587   -0.5909 C   0  0  0  0  0  0  0  0  0  0  0  0
    2.4399   -4.6336    0.0114 N   0  0  0  0  0  0  0  0  0  0  0  0
    2.4885   -4.4231    1.4600 C   0  0  2  0  0  0  0  0  0  0  0  0
    1.5434   -5.3580    2.2061 C   0  0  0  0  0  0  0  0  0  0  0  0
    2.1612   -2.9134    1.6007 C   0  0  0  0  0  0  0  0  0  0  0  0
    1.5728    0.9629   -2.1162 H   0  0  0  0  0  0  0  0  0  0  0  0
    0.8815    1.4283   -0.5479 H   0  0  0  0  0  0  0  0  0  0  0  0
    0.6776   -0.2371   -1.1498 H   0  0  0  0  0  0  0  0  0  0  0  0
    5.4971    1.2603    0.5587 H   0  0  0  0  0  0  0  0  0  0  0  0
    5.0814   -1.4019    1.1352 H   0  0  0  0  0  0  0  0  0  0  0  0
    1.3656   -2.1752   -0.2751 H   0  0  0  0  0  0  0  0  0  0  0  0
    4.1497   -3.4015   -0.4411 H   0  0  0  0  0  0  0  0  0  0  0  0
    2.8601   -3.4125   -1.6759 H   0  0  0  0  0  0  0  0  0  0  0  0
    2.8839   -5.5053   -0.2725 H   0  0  0  0  0  0  0  0  0  0  0  0
    3.5190   -4.5846    1.8534 H   0  0  0  0  0  0  0  0  0  0  0  0
    0.5103   -5.2188    1.8495 H   0  0  0  0  0  0  0  0  0  0  0  0
    1.5718   -5.1687    3.2915 H   0  0  0  0  0  0  0  0  0  0  0  0
    1.8181   -6.4140    2.0457 H   0  0  0  0  0  0  0  0  0  0  0  0
    2.8171   -2.4336    2.3421 H   0  0  0  0  0  0  0  0  0  0  0  0
    1.1252   -2.7633    1.9422 H   0  0  0  0  0  0  0  0  0  0  0  0
  1  2  1  0
  1 13  1  0
  1 14  1  0
  1 15  1  0
  2  3  1  0
  2  6  2  0
  3  4  1  0
  4  5  2  0
  4 16  1  0
  5  6  1  0
  5 17  1  0
  6  7  1  0
  7  8  1  0
  7 12  1  0
  7 18  1  6
  8  9  1  0
  8 19  1  0
  8 20  1  0
  9 10  1  0
  9 21  1  0
 10 11  1  0
 10 12  1  0
 10 22  1  1
 11 23  1  0
 11 24  1  0
 11 25  1  0
 12 26  1  0
 12 27  1  0
M  END

