
     RDKit          3D

 74 79  0  0  0  0  0  0  0  0999 V2000
    0.6631   -0.2460   -2.0871 C   0  0  0  0  0  0  0  0  0  0  0  0
    2.1472   -0.3641   -1.9401 C   0  0  0  0  0  0  0  0  0  0  0  0
    2.9347    0.6948   -2.0283 N   0  0  0  0  0  0  0  0  0  0  0  0
    4.2140    0.2807   -1.8406 N   0  0  0  0  0  0  0  0  0  0  0  0
    5.3090    1.2190   -1.8944 C   0  0  0  0  0  0  0  0  0  0  0  0
    4.2714   -1.0690   -1.6407 C   0  0  0  0  0  0  0  0  0  0  0  0
    5.3621   -1.8139   -1.4694 N   0  0  0  0  0  0  0  0  0  0  0  0
    5.1760   -3.1239   -1.2924 C   0  0  0  0  0  0  0  0  0  0  0  0
    6.3219   -3.9258   -1.1294 N   0  0  0  0  0  0  0  0  0  0  0  0
    6.5514   -4.9923   -2.1201 C   0  0  0  0  0  0  0  0  0  0  0  0
    7.3260   -6.1904   -1.6054 C   0  0  1  0  0  0  0  0  0  0  0  0
    6.6537   -7.4160   -1.0357 C   0  0  0  0  0  0  0  0  0  0  0  0
    7.3058   -7.4753   -2.3943 C   0  0  0  0  0  0  0  0  0  0  0  0
    7.5305   -3.2483   -0.6444 C   0  0  0  0  0  0  0  0  0  0  0  0
    8.4118   -2.5752   -1.6860 C   0  0  1  0  0  0  0  0  0  0  0  0
    9.8151   -2.1761   -1.3030 C   0  0  0  0  0  0  0  0  0  0  0  0
    9.5967   -3.2778   -2.3065 C   0  0  0  0  0  0  0  0  0  0  0  0
    3.8601   -3.7128   -1.2122 C   0  0  0  0  0  0  0  0  0  0  0  0
    3.6748   -5.1620   -0.7948 C   0  0  0  0  0  0  0  0  0  0  0  0
    2.5399   -5.3937    0.1024 N   0  0  0  0  0  0  0  0  0  0  0  0
    2.7078   -5.1494    1.5341 C   0  0  0  0  0  0  0  0  0  0  0  0
    1.6246   -4.2806    2.1562 C   0  0  0  0  0  0  0  0  0  0  0  0
    0.6132   -4.8485    2.9345 C   0  0  0  0  0  0  0  0  0  0  0  0
   -0.3938   -4.0497    3.4928 C   0  0  0  0  0  0  0  0  0  0  0  0
   -1.4894   -4.7190    4.2857 C   0  0  1  0  0  0  0  0  0  0  0  0
   -0.9880   -5.5154    5.2469 F   0  0  0  0  0  0  0  0  0  0  0  0
   -2.3048   -3.8330    4.8780 F   0  0  0  0  0  0  0  0  0  0  0  0
   -2.2547   -5.5017    3.4969 F   0  0  0  0  0  0  0  0  0  0  0  0
   -0.3958   -2.6714    3.2889 C   0  0  0  0  0  0  0  0  0  0  0  0
    0.6201   -2.0956    2.5151 C   0  0  0  0  0  0  0  0  0  0  0  0
    0.5906   -0.6071    2.2659 C   0  0  1  0  0  0  0  0  0  0  0  0
    0.3268    0.0787    3.3917 F   0  0  0  0  0  0  0  0  0  0  0  0
    1.7504   -0.1504    1.7715 F   0  0  0  0  0  0  0  0  0  0  0  0
   -0.3764   -0.2808    1.3804 F   0  0  0  0  0  0  0  0  0  0  0  0
    1.6194   -2.8916    1.9534 C   0  0  0  0  0  0  0  0  0  0  0  0
    1.5334   -6.2303   -0.2973 C   0  0  0  0  0  0  0  0  0  0  0  0
    1.2750   -6.5426   -1.5989 N   0  0  0  0  0  0  0  0  0  0  0  0
    0.2385   -7.3364   -1.5827 N   0  0  0  0  0  0  0  0  0  0  0  0
   -0.1084   -7.4851   -0.3229 N   0  0  0  0  0  0  0  0  0  0  0  0
   -1.2348   -8.2878    0.1021 C   0  0  0  0  0  0  0  0  0  0  0  0
    0.6733   -6.8246    0.5340 N   0  0  0  0  0  0  0  0  0  0  0  0
    2.7486   -2.9084   -1.4474 C   0  0  0  0  0  0  0  0  0  0  0  0
    2.9354   -1.5388   -1.6891 C   0  0  0  0  0  0  0  0  0  0  0  0
    0.4028    0.7769   -2.3927 H   0  0  0  0  0  0  0  0  0  0  0  0
    0.1464   -0.4605   -1.1375 H   0  0  0  0  0  0  0  0  0  0  0  0
    0.2757   -0.9486   -2.8431 H   0  0  0  0  0  0  0  0  0  0  0  0
    5.3698    1.6916   -2.8877 H   0  0  0  0  0  0  0  0  0  0  0  0
    6.2381    0.6700   -1.6937 H   0  0  0  0  0  0  0  0  0  0  0  0
    5.1779    2.0075   -1.1370 H   0  0  0  0  0  0  0  0  0  0  0  0
    7.0940   -4.5731   -2.9904 H   0  0  0  0  0  0  0  0  0  0  0  0
    5.5813   -5.3276   -2.5115 H   0  0  0  0  0  0  0  0  0  0  0  0
    8.2947   -5.9440   -1.1602 H   0  0  0  0  0  0  0  0  0  0  0  0
    5.5617   -7.4434   -0.9994 H   0  0  0  0  0  0  0  0  0  0  0  0
    7.1385   -7.9303   -0.2009 H   0  0  0  0  0  0  0  0  0  0  0  0
    6.6503   -7.5262   -3.2697 H   0  0  0  0  0  0  0  0  0  0  0  0
    8.2398   -8.0327   -2.5074 H   0  0  0  0  0  0  0  0  0  0  0  0
    8.1334   -3.9842   -0.0836 H   0  0  0  0  0  0  0  0  0  0  0  0
    7.2011   -2.4921    0.0817 H   0  0  0  0  0  0  0  0  0  0  0  0
    7.8683   -1.8746   -2.3256 H   0  0  0  0  0  0  0  0  0  0  0  0
   10.1719   -2.4576   -0.3064 H   0  0  0  0  0  0  0  0  0  0  0  0
   10.1964   -1.2130   -1.6538 H   0  0  0  0  0  0  0  0  0  0  0  0
    9.8183   -4.3023   -1.9915 H   0  0  0  0  0  0  0  0  0  0  0  0
    9.8239   -3.0804   -3.3583 H   0  0  0  0  0  0  0  0  0  0  0  0
    4.5976   -5.5001   -0.2979 H   0  0  0  0  0  0  0  0  0  0  0  0
    3.5199   -5.8048   -1.6742 H   0  0  0  0  0  0  0  0  0  0  0  0
    3.6799   -4.6520    1.6579 H   0  0  0  0  0  0  0  0  0  0  0  0
    2.7556   -6.1085    2.0813 H   0  0  0  0  0  0  0  0  0  0  0  0
    0.5997   -5.9280    3.0892 H   0  0  0  0  0  0  0  0  0  0  0  0
   -1.1749   -2.0501    3.7318 H   0  0  0  0  0  0  0  0  0  0  0  0
    2.4016   -2.4263    1.3517 H   0  0  0  0  0  0  0  0  0  0  0  0
   -1.7482   -8.6410   -0.7999 H   0  0  0  0  0  0  0  0  0  0  0  0
   -1.9127   -7.6754    0.7139 H   0  0  0  0  0  0  0  0  0  0  0  0
   -0.8867   -9.1448    0.6978 H   0  0  0  0  0  0  0  0  0  0  0  0
    1.7491   -3.3464   -1.3922 H   0  0  0  0  0  0  0  0  0  0  0  0
  1  2  1  0
  1 44  1  0
  1 45  1  0
  1 46  1  0
  2  3  2  0
  2 43  1  0
  3  4  1  0
  4  5  1  0
  4  6  1  0
  5 47  1  0
  5 48  1  0
  5 49  1  0
  6  7  1  0
  6 43  2  0
  7  8  2  0
  8  9  1  0
  8 18  1  0
  9 10  1  0
  9 14  1  0
 10 11  1  0
 10 50  1  0
 10 51  1  0
 11 12  1  0
 11 13  1  0
 11 52  1  1
 12 13  1  0
 12 53  1  0
 12 54  1  0
 13 55  1  0
 13 56  1  0
 14 15  1  0
 14 57  1  0
 14 58  1  0
 15 16  1  0
 15 17  1  0
 15 59  1  6
 16 17  1  0
 16 60  1  0
 16 61  1  0
 17 62  1  0
 17 63  1  0
 18 19  1  0
 18 42  2  0
 19 20  1  0
 19 64  1  0
 19 65  1  0
 20 21  1  0
 20 36  1  0
 21 22  1  0
 21 66  1  0
 21 67  1  0
 22 23  2  0
 22 35  1  0
 23 24  1  0
 23 68  1  0
 24 25  1  0
 24 29  2  0
 25 26  1  1
 25 27  1  0
 25 28  1  0
 29 30  1  0
 29 69  1  0
 30 31  1  0
 30 35  2  0
 31 32  1  1
 31 33  1  0
 31 34  1  0
 35 70  1  0
 36 37  1  0
 36 41  2  0
 37 38  2  0
 38 39  1  0
 39 40  1  0
 39 41  1  0
 40 71  1  0
 40 72  1  0
 40 73  1  0
 42 43  1  0
 42 74  1  0
M  END

