
     RDKit          3D

 44 48  0  0  0  0  0  0  0  0999 V2000
    3.9990   -3.7958   -3.7164 C   0  0  0  0  0  0  0  0  0  0  0  0
    4.2151   -3.2985   -2.4195 O   0  0  0  0  0  0  0  0  0  0  0  0
    4.6052   -1.9330   -2.3057 C   0  0  1  0  0  0  0  0  0  0  0  0
    3.8847   -1.3032   -2.8577 H   0  0  0  0  0  0  0  0  0  0  0  0
    4.5634   -1.6125   -0.8153 C   0  0  0  0  0  0  0  0  0  0  0  0
    5.5908   -2.4789   -0.0927 C   0  0  0  0  0  0  0  0  0  0  0  0
    7.0248   -2.2214   -0.5788 C   0  0  1  0  0  0  0  0  0  0  0  0
    7.6553   -1.1889    0.2272 O   0  0  0  0  0  0  0  0  0  0  0  0
    7.9123   -1.5283    1.5349 C   0  0  0  0  0  0  0  0  0  0  0  0
    7.9925   -0.5615    2.5151 C   0  0  0  0  0  0  0  0  0  0  0  0
    8.3172   -0.9557    3.8384 C   0  0  0  0  0  0  0  0  0  0  0  0
    8.5493   -2.2789    4.1629 C   0  0  0  0  0  0  0  0  0  0  0  0
    8.4783   -3.2923    3.1650 C   0  0  0  0  0  0  0  0  0  0  0  0
    8.7415   -4.6707    3.4003 C   0  0  0  0  0  0  0  0  0  0  0  0
    8.6886   -5.5793    2.3594 C   0  0  0  0  0  0  0  0  0  0  0  0
    8.3598   -5.1821    1.0395 C   0  0  0  0  0  0  0  0  0  0  0  0
    8.0884   -3.8516    0.7879 C   0  0  0  0  0  0  0  0  0  0  0  0
    8.1466   -2.8943    1.8345 C   0  0  0  0  0  0  0  0  0  0  0  0
    7.8037   -3.4217   -0.4768 O   0  0  0  0  0  0  0  0  0  0  0  0
    7.1379   -1.7488   -2.0222 C   0  0  0  0  0  0  0  0  0  0  0  0
    8.4146   -1.4043   -2.5256 C   0  0  0  0  0  0  0  0  0  0  0  0
    9.5395   -1.4006   -1.7729 O   0  0  0  0  0  0  0  0  0  0  0  0
    8.5466   -1.0339   -3.8694 C   0  0  0  0  0  0  0  0  0  0  0  0
    7.4300   -0.9579   -4.6944 C   0  0  0  0  0  0  0  0  0  0  0  0
    6.1569   -1.2407   -4.1886 C   0  0  0  0  0  0  0  0  0  0  0  0
    5.0327   -1.1183   -4.9609 O   0  0  0  0  0  0  0  0  0  0  0  0
    6.0002   -1.6495   -2.8521 C   0  0  0  0  0  0  0  0  0  0  0  0
    3.6231   -4.8241   -3.6067 H   0  0  0  0  0  0  0  0  0  0  0  0
    4.9257   -3.8246   -4.3192 H   0  0  0  0  0  0  0  0  0  0  0  0
    3.2518   -3.1976   -4.2714 H   0  0  0  0  0  0  0  0  0  0  0  0
    3.5560   -1.8264   -0.4270 H   0  0  0  0  0  0  0  0  0  0  0  0
    4.7659   -0.5403   -0.6610 H   0  0  0  0  0  0  0  0  0  0  0  0
    5.3581   -3.5315   -0.3025 H   0  0  0  0  0  0  0  0  0  0  0  0
    5.5414   -2.3352    0.9959 H   0  0  0  0  0  0  0  0  0  0  0  0
    7.8111    0.4839    2.2597 H   0  0  0  0  0  0  0  0  0  0  0  0
    8.3807   -0.1888    4.6144 H   0  0  0  0  0  0  0  0  0  0  0  0
    8.7992   -2.5605    5.1887 H   0  0  0  0  0  0  0  0  0  0  0  0
    8.9951   -4.9997    4.4109 H   0  0  0  0  0  0  0  0  0  0  0  0
    8.8997   -6.6343    2.5521 H   0  0  0  0  0  0  0  0  0  0  0  0
    8.3172   -5.9030    0.2214 H   0  0  0  0  0  0  0  0  0  0  0  0
    9.2801   -1.3609   -0.8392 H   0  0  0  0  0  0  0  0  0  0  0  0
    9.5427   -0.7853   -4.2404 H   0  0  0  0  0  0  0  0  0  0  0  0
    7.5434   -0.6516   -5.7395 H   0  0  0  0  0  0  0  0  0  0  0  0
    5.2809   -0.7844   -5.8321 H   0  0  0  0  0  0  0  0  0  0  0  0
  1  2  1  0
  1 28  1  0
  1 29  1  0
  1 30  1  0
  2  3  1  0
  3  4  1  6
  3  5  1  0
  3 27  1  0
  5  6  1  0
  5 31  1  0
  5 32  1  0
  6  7  1  0
  6 33  1  0
  6 34  1  0
  7  8  1  1
  7 19  1  0
  7 20  1  0
  8  9  1  0
  9 10  2  0
  9 18  1  0
 10 11  1  0
 10 35  1  0
 11 12  2  0
 11 36  1  0
 12 13  1  0
 12 37  1  0
 13 14  1  0
 13 18  2  0
 14 15  2  0
 14 38  1  0
 15 16  1  0
 15 39  1  0
 16 17  2  0
 16 40  1  0
 17 18  1  0
 17 19  1  0
 20 21  1  0
 20 27  2  0
 21 22  1  0
 21 23  2  0
 22 41  1  0
 23 24  1  0
 23 42  1  0
 24 25  2  0
 24 43  1  0
 25 26  1  0
 25 27  1  0
 26 44  1  0
M  END

