
     RDKit          3D

 39 41  0  0  0  0  0  0  0  0999 V2000
    1.0150    0.1972   -0.9445 C   0  0  0  0  0  0  0  0  0  0  0  0
    2.1538   -0.1845    0.0084 C   0  0  1  0  0  0  0  0  0  0  0  0
    2.6488   -1.5075   -0.3155 N   0  0  0  0  0  0  0  0  0  0  0  0
    3.9957   -1.8142    0.1453 C   0  0  0  0  0  0  0  0  0  0  0  0
    5.0184   -1.3039   -0.8387 C   0  0  0  0  0  0  0  0  0  0  0  0
    5.7833   -2.2026   -1.5924 C   0  0  0  0  0  0  0  0  0  0  0  0
    6.6397   -1.7708   -2.6075 C   0  0  0  0  0  0  0  0  0  0  0  0
    6.7178   -0.4072   -2.8878 C   0  0  0  0  0  0  0  0  0  0  0  0
    5.9626    0.5051   -2.1484 C   0  0  0  0  0  0  0  0  0  0  0  0
    5.1077    0.0800   -1.1165 C   0  0  0  0  0  0  0  0  0  0  0  0
    4.4252    1.0649   -0.3332 N   0  0  0  0  0  0  0  0  0  0  0  0
    5.1601    2.3158   -0.0534 C   0  0  0  0  0  0  0  0  0  0  0  0
    6.4745    2.1152    0.6725 C   0  0  0  0  0  0  0  0  0  0  0  0
    7.6318    2.7829    0.2435 C   0  0  0  0  0  0  0  0  0  0  0  0
    8.8270    2.6408    0.9528 C   0  0  0  0  0  0  0  0  0  0  0  0
    8.8883    1.8298    2.0871 C   0  0  0  0  0  0  0  0  0  0  0  0
    7.7352    1.1569    2.5188 C   0  0  0  0  0  0  0  0  0  0  0  0
    7.7248    0.3545    3.6152 O   0  0  0  0  0  0  0  0  0  0  0  0
    6.5351    1.3057    1.8125 C   0  0  0  0  0  0  0  0  0  0  0  0
    3.1147    1.0288    0.1481 C   0  0  0  0  0  0  0  0  0  0  0  0
    2.6465    1.9948    0.7318 O   0  0  0  0  0  0  0  0  0  0  0  0
    0.2464   -0.5905   -0.9330 H   0  0  0  0  0  0  0  0  0  0  0  0
    1.3847    0.3060   -1.9785 H   0  0  0  0  0  0  0  0  0  0  0  0
    0.5607    1.1471   -0.6344 H   0  0  0  0  0  0  0  0  0  0  0  0
    1.7269   -0.2137    1.0281 H   0  0  0  0  0  0  0  0  0  0  0  0
    2.5781   -1.6902   -1.3148 H   0  0  0  0  0  0  0  0  0  0  0  0
    4.1157   -2.9026    0.2743 H   0  0  0  0  0  0  0  0  0  0  0  0
    4.1338   -1.3635    1.1432 H   0  0  0  0  0  0  0  0  0  0  0  0
    5.6986   -3.2702   -1.3695 H   0  0  0  0  0  0  0  0  0  0  0  0
    7.2316   -2.4923   -3.1755 H   0  0  0  0  0  0  0  0  0  0  0  0
    7.3699   -0.0415   -3.6848 H   0  0  0  0  0  0  0  0  0  0  0  0
    6.0456    1.5655   -2.3834 H   0  0  0  0  0  0  0  0  0  0  0  0
    4.4778    2.9167    0.5614 H   0  0  0  0  0  0  0  0  0  0  0  0
    5.3233    2.8837   -0.9824 H   0  0  0  0  0  0  0  0  0  0  0  0
    7.5973    3.4157   -0.6471 H   0  0  0  0  0  0  0  0  0  0  0  0
    9.7267    3.1621    0.6158 H   0  0  0  0  0  0  0  0  0  0  0  0
    9.8274    1.7147    2.6379 H   0  0  0  0  0  0  0  0  0  0  0  0
    8.6037    0.3458    4.0164 H   0  0  0  0  0  0  0  0  0  0  0  0
    5.6508    0.7787    2.1766 H   0  0  0  0  0  0  0  0  0  0  0  0
  1  2  1  0
  1 22  1  0
  1 23  1  0
  1 24  1  0
  2  3  1  0
  2 20  1  0
  2 25  1  1
  3  4  1  0
  3 26  1  0
  4  5  1  0
  4 27  1  0
  4 28  1  0
  5  6  2  0
  5 10  1  0
  6  7  1  0
  6 29  1  0
  7  8  2  0
  7 30  1  0
  8  9  1  0
  8 31  1  0
  9 10  2  0
  9 32  1  0
 10 11  1  0
 11 12  1  0
 11 20  1  0
 12 13  1  0
 12 33  1  0
 12 34  1  0
 13 14  2  0
 13 19  1  0
 14 15  1  0
 14 35  1  0
 15 16  2  0
 15 36  1  0
 16 17  1  0
 16 37  1  0
 17 18  1  0
 17 19  2  0
 18 38  1  0
 19 39  1  0
 20 21  2  0
M  END

