
     RDKit          3D

 44 46  0  0  0  0  0  0  0  0999 V2000
   -0.0714   -0.6982   -0.3138 C   0  0  0  0  0  0  0  0  0  0  0  0
    1.4214   -0.5705   -0.0372 C   0  0  1  0  0  0  0  0  0  0  0  0
    1.7610   -0.7565    1.7926 S   0  0  0  0  0  0  0  0  0  0  0  0
    2.3309    0.8593    2.1880 C   0  0  0  0  0  0  0  0  0  0  0  0
    2.5999    1.8190    1.3168 N   0  0  0  0  0  0  0  0  0  0  0  0
    3.0148    2.8812    2.0361 N   0  0  0  0  0  0  0  0  0  0  0  0
    3.0140    2.6159    3.2886 N   0  0  0  0  0  0  0  0  0  0  0  0
    2.5869    1.3371    3.4359 N   0  0  0  0  0  0  0  0  0  0  0  0
    2.4574    0.7137    4.7909 C   0  0  1  0  0  0  0  0  0  0  0  0
    0.9791    0.3596    5.0278 C   0  0  0  0  0  0  0  0  0  0  0  0
    3.3535   -0.5354    4.8444 C   0  0  0  0  0  0  0  0  0  0  0  0
    2.9242    1.7306    5.8414 C   0  0  0  0  0  0  0  0  0  0  0  0
    2.2393   -1.6719   -0.7355 C   0  0  0  0  0  0  0  0  0  0  0  0
    1.7102   -2.7450   -0.9624 O   0  0  0  0  0  0  0  0  0  0  0  0
    3.6582   -1.4109   -1.1211 C   0  0  0  0  0  0  0  0  0  0  0  0
    4.3175   -0.1843   -0.9224 C   0  0  0  0  0  0  0  0  0  0  0  0
    5.6450   -0.0289   -1.3241 C   0  0  0  0  0  0  0  0  0  0  0  0
    6.3260   -1.0838   -1.9334 C   0  0  0  0  0  0  0  0  0  0  0  0
    5.6702   -2.3170   -2.1493 C   0  0  0  0  0  0  0  0  0  0  0  0
    4.3520   -2.4709   -1.7360 C   0  0  0  0  0  0  0  0  0  0  0  0
    6.3780   -3.3282   -2.8166 N   0  0  0  0  0  0  0  0  0  0  0  0
    7.7279   -3.2875   -3.0499 C   0  0  0  0  0  0  0  0  0  0  0  0
    8.3411   -4.1689   -3.6135 O   0  0  0  0  0  0  0  0  0  0  0  0
    8.4214   -2.0551   -2.4731 C   0  0  0  0  0  0  0  0  0  0  0  0
    7.5987   -0.9000   -2.3632 O   0  0  0  0  0  0  0  0  0  0  0  0
   -0.6351    0.0691    0.2353 H   0  0  0  0  0  0  0  0  0  0  0  0
   -0.4406   -1.6947   -0.0349 H   0  0  0  0  0  0  0  0  0  0  0  0
   -0.2587   -0.5644   -1.3918 H   0  0  0  0  0  0  0  0  0  0  0  0
    1.7897    0.4312   -0.2862 H   0  0  0  0  0  0  0  0  0  0  0  0
    0.6017   -0.3564    4.2834 H   0  0  0  0  0  0  0  0  0  0  0  0
    0.3536    1.2644    4.9873 H   0  0  0  0  0  0  0  0  0  0  0  0
    0.8644   -0.0940    6.0239 H   0  0  0  0  0  0  0  0  0  0  0  0
    3.0593   -1.2924    4.1028 H   0  0  0  0  0  0  0  0  0  0  0  0
    3.2812   -0.9959    5.8411 H   0  0  0  0  0  0  0  0  0  0  0  0
    4.4056   -0.2662    4.6650 H   0  0  0  0  0  0  0  0  0  0  0  0
    2.3162    2.6445    5.8190 H   0  0  0  0  0  0  0  0  0  0  0  0
    3.9722    2.0202    5.6867 H   0  0  0  0  0  0  0  0  0  0  0  0
    2.8291    1.2671    6.8350 H   0  0  0  0  0  0  0  0  0  0  0  0
    3.8178    0.6578   -0.4401 H   0  0  0  0  0  0  0  0  0  0  0  0
    6.1739    0.9145   -1.1771 H   0  0  0  0  0  0  0  0  0  0  0  0
    3.8230   -3.4132   -1.8947 H   0  0  0  0  0  0  0  0  0  0  0  0
    5.8893   -4.1641   -3.1249 H   0  0  0  0  0  0  0  0  0  0  0  0
    9.2625   -1.7987   -3.1293 H   0  0  0  0  0  0  0  0  0  0  0  0
    8.8311   -2.3294   -1.4806 H   0  0  0  0  0  0  0  0  0  0  0  0
  1  2  1  0
  1 26  1  0
  1 27  1  0
  1 28  1  0
  2  3  1  0
  2 13  1  0
  2 29  1  6
  3  4  1  0
  4  5  2  0
  4  8  1  0
  5  6  1  0
  6  7  2  0
  7  8  1  0
  8  9  1  0
  9 10  1  1
  9 11  1  0
  9 12  1  0
 10 30  1  0
 10 31  1  0
 10 32  1  0
 11 33  1  0
 11 34  1  0
 11 35  1  0
 12 36  1  0
 12 37  1  0
 12 38  1  0
 13 14  2  0
 13 15  1  0
 15 16  2  0
 15 20  1  0
 16 17  1  0
 16 39  1  0
 17 18  2  0
 17 40  1  0
 18 19  1  0
 18 25  1  0
 19 20  2  0
 19 21  1  0
 20 41  1  0
 21 22  1  0
 21 42  1  0
 22 23  2  0
 22 24  1  0
 24 25  1  0
 24 43  1  0
 24 44  1  0
M  END

