
     RDKit          3D

 35 37  0  0  0  0  0  0  0  0999 V2000
    1.5775    0.6774   -2.7636 N   0  0  0  0  0  0  0  0  0  0  0  0
    2.9366    0.6277   -2.4445 N   0  0  0  0  0  0  0  0  0  0  0  0
    3.4547   -0.3703   -1.6641 C   0  0  0  0  0  0  0  0  0  0  0  0
    2.7594   -1.2802   -1.2383 O   0  0  0  0  0  0  0  0  0  0  0  0
    4.9221   -0.2749   -1.3535 C   0  0  0  0  0  0  0  0  0  0  0  0
    5.4198   -1.0105   -0.2680 C   0  0  0  0  0  0  0  0  0  0  0  0
    6.7749   -0.9425    0.0318 C   0  0  0  0  0  0  0  0  0  0  0  0
    7.6119   -0.1414   -0.7667 C   0  0  0  0  0  0  0  0  0  0  0  0
    9.0857   -0.0257   -0.4803 C   0  0  0  0  0  0  0  0  0  0  0  0
    9.9446   -1.6101   -0.9662 S   0  0  0  0  0  0  0  0  0  0  0  0
   11.5746   -1.3070   -0.3761 C   0  0  0  0  0  0  0  0  0  0  0  0
   12.6725   -0.8010   -1.0428 C   0  0  0  0  0  0  0  0  0  0  0  0
   13.7697   -0.8012   -0.1183 C   0  0  0  0  0  0  0  0  0  0  0  0
   15.1232   -0.4127   -0.1972 C   0  0  0  0  0  0  0  0  0  0  0  0
   15.9338   -0.5586    0.9219 C   0  0  0  0  0  0  0  0  0  0  0  0
   15.4229   -1.0881    2.1296 C   0  0  0  0  0  0  0  0  0  0  0  0
   14.0929   -1.4792    2.2423 C   0  0  0  0  0  0  0  0  0  0  0  0
   13.2736   -1.3299    1.1124 C   0  0  0  0  0  0  0  0  0  0  0  0
   11.9430   -1.6212    0.9269 N   0  0  0  0  0  0  0  0  0  0  0  0
   11.3281   -2.0689    1.5938 H   0  0  0  0  0  0  0  0  0  0  0  0
    7.1457    0.5361   -1.8232 N   0  0  0  0  0  0  0  0  0  0  0  0
    5.8450    0.4676   -2.1051 C   0  0  0  0  0  0  0  0  0  0  0  0
    1.0443    0.4898   -1.9097 H   0  0  0  0  0  0  0  0  0  0  0  0
    1.3659   -0.1078   -3.3843 H   0  0  0  0  0  0  0  0  0  0  0  0
    3.4567    1.4784   -2.6225 H   0  0  0  0  0  0  0  0  0  0  0  0
    4.7272   -1.6220    0.3142 H   0  0  0  0  0  0  0  0  0  0  0  0
    7.1926   -1.5052    0.8697 H   0  0  0  0  0  0  0  0  0  0  0  0
    9.2725    0.1443    0.5901 H   0  0  0  0  0  0  0  0  0  0  0  0
    9.5057    0.7986   -1.0696 H   0  0  0  0  0  0  0  0  0  0  0  0
   12.6778   -0.4696   -2.0788 H   0  0  0  0  0  0  0  0  0  0  0  0
   15.5261   -0.0039   -1.1274 H   0  0  0  0  0  0  0  0  0  0  0  0
   16.9844   -0.2616    0.8727 H   0  0  0  0  0  0  0  0  0  0  0  0
   16.0867   -1.1918    2.9917 H   0  0  0  0  0  0  0  0  0  0  0  0
   13.7012   -1.8875    3.1774 H   0  0  0  0  0  0  0  0  0  0  0  0
    5.5249    1.0174   -2.9985 H   0  0  0  0  0  0  0  0  0  0  0  0
  1  2  1  0
  1 23  1  0
  1 24  1  0
  2  3  1  0
  2 25  1  0
  3  4  2  0
  3  5  1  0
  5  6  2  0
  5 22  1  0
  6  7  1  0
  6 26  1  0
  7  8  2  0
  7 27  1  0
  8  9  1  0
  8 21  1  0
  9 10  1  0
  9 28  1  0
  9 29  1  0
 10 11  1  0
 11 12  2  0
 11 19  1  0
 12 13  1  0
 12 30  1  0
 13 14  2  0
 13 18  1  0
 14 15  1  0
 14 31  1  0
 15 16  2  0
 15 32  1  0
 16 17  1  0
 16 33  1  0
 17 18  2  0
 17 34  1  0
 18 19  1  0
 19 20  1  0
 21 22  2  0
 22 35  1  0
M  END

