
     RDKit          3D

 15 15  0  0  0  0  0  0  0  0999 V2000
    1.0027    0.2259   -0.1230 N   0  0  0  0  0  0  0  0  0  0  0  0
    2.3730    0.1262   -0.0134 C   0  0  0  0  0  0  0  0  0  0  0  0
    3.2505    1.2673    0.0660 C   0  0  0  0  0  0  0  0  0  0  0  0
    2.5973    3.0460   -0.0615 Br  0  0  0  0  0  0  0  0  0  0  0  0
    4.5727    0.9555    0.2346 C   0  0  0  0  0  0  0  0  0  0  0  0
    4.7986   -0.7524    0.3176 S   0  0  0  0  0  0  0  0  0  0  0  0
    3.0919   -1.0551    0.0950 C   0  0  0  0  0  0  0  0  0  0  0  0
    2.5462   -2.4483   -0.0477 C   0  0  0  0  0  0  0  0  0  0  0  0
    1.2869   -2.6140    0.5890 O   0  0  0  0  0  0  0  0  0  0  0  0
    0.6340    1.0483   -0.5851 H   0  0  0  0  0  0  0  0  0  0  0  0
    0.4974   -0.6430   -0.2519 H   0  0  0  0  0  0  0  0  0  0  0  0
    5.4111    1.6424    0.3262 H   0  0  0  0  0  0  0  0  0  0  0  0
    3.2904   -3.1851    0.3142 H   0  0  0  0  0  0  0  0  0  0  0  0
    2.3596   -2.6908   -1.1098 H   0  0  0  0  0  0  0  0  0  0  0  0
    1.3891   -2.3526    1.5156 H   0  0  0  0  0  0  0  0  0  0  0  0
  1  2  1  0
  1 10  1  0
  1 11  1  0
  2  3  1  0
  2  7  2  0
  3  4  1  0
  3  5  2  0
  5  6  1  0
  5 12  1  0
  6  7  1  0
  7  8  1  0
  8  9  1  0
  8 13  1  0
  8 14  1  0
  9 15  1  0
M  END

