
     RDKit          3D

 49 50  0  0  0  0  0  0  0  0999 V2000
    1.6956    3.1746    1.5304 C   0  0  0  0  0  0  0  0  0  0  0  0
    2.2188    1.7303    1.6762 C   0  0  1  0  0  0  0  0  0  0  0  0
    1.0470    0.7573    1.8957 C   0  0  0  0  0  0  0  0  0  0  0  0
    3.0930    1.2735    0.5843 N   0  0  0  0  0  0  0  0  0  0  0  0
    2.6133    1.5564   -0.7525 C   0  0  0  0  0  0  0  0  0  0  0  0
    4.5525    1.2059    0.8207 C   0  0  1  0  0  0  0  0  0  0  0  0
    5.1196    2.6094    1.2024 C   0  0  0  0  0  0  0  0  0  0  0  0
    6.5613    2.6272    1.4548 N   0  0  0  0  0  0  0  0  0  0  0  0
    4.8626    0.1721    1.9338 C   0  0  0  0  0  0  0  0  0  0  0  0
    4.5324   -1.2531    1.4862 C   0  0  0  0  0  0  0  0  0  0  0  0
    5.2690   -1.6040    0.1962 C   0  0  0  0  0  0  0  0  0  0  0  0
    4.9782   -0.6349   -0.8547 N   0  0  0  0  0  0  0  0  0  0  0  0
    5.5930   -0.9838   -2.1255 C   0  0  0  0  0  0  0  0  0  0  0  0
    5.0214   -2.2324   -2.7747 C   0  0  0  0  0  0  0  0  0  0  0  0
    3.6401   -2.4852   -2.7600 C   0  0  0  0  0  0  0  0  0  0  0  0
    3.1129   -3.6061   -3.4055 C   0  0  0  0  0  0  0  0  0  0  0  0
    3.9575   -4.4945   -4.0803 C   0  0  0  0  0  0  0  0  0  0  0  0
    5.3339   -4.2548   -4.0984 C   0  0  0  0  0  0  0  0  0  0  0  0
    5.8590   -3.1344   -3.4463 C   0  0  0  0  0  0  0  0  0  0  0  0
    5.3081    0.7272   -0.4425 C   0  0  0  0  0  0  0  0  0  0  0  0
    1.1452    3.4759    2.4367 H   0  0  0  0  0  0  0  0  0  0  0  0
    1.0014    3.2740    0.6808 H   0  0  0  0  0  0  0  0  0  0  0  0
    2.5141    3.8942    1.3786 H   0  0  0  0  0  0  0  0  0  0  0  0
    2.8211    1.7076    2.5963 H   0  0  0  0  0  0  0  0  0  0  0  0
    0.3990    0.7016    1.0054 H   0  0  0  0  0  0  0  0  0  0  0  0
    0.4164    1.0796    2.7409 H   0  0  0  0  0  0  0  0  0  0  0  0
    1.4153   -0.2578    2.1052 H   0  0  0  0  0  0  0  0  0  0  0  0
    1.5163    1.4687   -0.7720 H   0  0  0  0  0  0  0  0  0  0  0  0
    2.9947    0.8140   -1.4674 H   0  0  0  0  0  0  0  0  0  0  0  0
    2.8582    2.5706   -1.1407 H   0  0  0  0  0  0  0  0  0  0  0  0
    4.5329    2.9948    2.0584 H   0  0  0  0  0  0  0  0  0  0  0  0
    4.9144    3.2884    0.3576 H   0  0  0  0  0  0  0  0  0  0  0  0
    6.7680    2.3448    2.4121 H   0  0  0  0  0  0  0  0  0  0  0  0
    6.9299    3.5715    1.3530 H   0  0  0  0  0  0  0  0  0  0  0  0
    4.3275    0.4217    2.8643 H   0  0  0  0  0  0  0  0  0  0  0  0
    5.9393    0.2340    2.1670 H   0  0  0  0  0  0  0  0  0  0  0  0
    3.4490   -1.3406    1.3124 H   0  0  0  0  0  0  0  0  0  0  0  0
    4.8060   -1.9763    2.2726 H   0  0  0  0  0  0  0  0  0  0  0  0
    4.9735   -2.6057   -0.1520 H   0  0  0  0  0  0  0  0  0  0  0  0
    6.3675   -1.6467    0.3980 H   0  0  0  0  0  0  0  0  0  0  0  0
    6.6990   -1.0973   -2.0359 H   0  0  0  0  0  0  0  0  0  0  0  0
    5.4356   -0.1330   -2.8133 H   0  0  0  0  0  0  0  0  0  0  0  0
    2.9848   -1.7954   -2.2232 H   0  0  0  0  0  0  0  0  0  0  0  0
    2.0350   -3.7886   -3.3820 H   0  0  0  0  0  0  0  0  0  0  0  0
    3.5444   -5.3717   -4.5852 H   0  0  0  0  0  0  0  0  0  0  0  0
    6.0044   -4.9459   -4.6165 H   0  0  0  0  0  0  0  0  0  0  0  0
    6.9389   -2.9578   -3.4573 H   0  0  0  0  0  0  0  0  0  0  0  0
    5.1018    1.4062   -1.2842 H   0  0  0  0  0  0  0  0  0  0  0  0
    6.3885    0.8386   -0.2168 H   0  0  0  0  0  0  0  0  0  0  0  0
  1  2  1  0
  1 21  1  0
  1 22  1  0
  1 23  1  0
  2  3  1  0
  2  4  1  0
  2 24  1  1
  3 25  1  0
  3 26  1  0
  3 27  1  0
  4  5  1  0
  6  4  1  6
  5 28  1  0
  5 29  1  0
  5 30  1  0
  6  7  1  0
  6  9  1  0
  6 20  1  0
  7  8  1  0
  7 31  1  0
  7 32  1  0
  8 33  1  0
  8 34  1  0
  9 10  1  0
  9 35  1  0
  9 36  1  0
 10 11  1  0
 10 37  1  0
 10 38  1  0
 11 12  1  0
 11 39  1  0
 11 40  1  0
 12 13  1  0
 12 20  1  0
 13 14  1  0
 13 41  1  0
 13 42  1  0
 14 15  2  0
 14 19  1  0
 15 16  1  0
 15 43  1  0
 16 17  2  0
 16 44  1  0
 17 18  1  0
 17 45  1  0
 18 19  2  0
 18 46  1  0
 19 47  1  0
 20 48  1  0
 20 49  1  0
M  END

