
     RDKit          3D

 34 36  0  0  0  0  0  0  0  0999 V2000
    0.8787    0.1190    0.1886 C   0  0  0  0  0  0  0  0  0  0  0  0
    2.3838    0.0376    0.2026 C   0  0  0  0  0  0  0  0  0  0  0  0
    3.1547    1.2287    0.0402 C   0  0  0  0  0  0  0  0  0  0  0  0
    4.5291    1.1880    0.0475 C   0  0  0  0  0  0  0  0  0  0  0  0
    5.1479   -0.0092    0.2126 N   0  0  0  0  0  0  0  0  0  0  0  0
    6.4832   -0.2358    0.2429 N   0  0  0  0  0  0  0  0  0  0  0  0
    6.5329   -1.5652    0.4252 C   0  0  0  0  0  0  0  0  0  0  0  0
    7.7113   -2.2421    0.5255 N   0  0  0  0  0  0  0  0  0  0  0  0
    8.9990   -1.6417    0.2130 C   0  0  0  0  0  0  0  0  0  0  0  0
    9.5685   -0.7631    1.3359 C   0  0  0  0  0  0  0  0  0  0  0  0
    9.7351   -1.4806    2.6800 C   0  0  0  0  0  0  0  0  0  0  0  0
   10.7522   -2.5825    2.6582 C   0  0  0  0  0  0  0  0  0  0  0  0
   11.7622   -2.7263    1.8145 N   0  0  0  0  0  0  0  0  0  0  0  0
   12.3868   -3.8541    2.2538 C   0  0  0  0  0  0  0  0  0  0  0  0
   11.8336   -4.4221    3.3110 N   0  0  0  0  0  0  0  0  0  0  0  0
   10.7907   -3.6010    3.5554 N   0  0  0  0  0  0  0  0  0  0  0  0
   10.1632   -3.7891    4.3294 H   0  0  0  0  0  0  0  0  0  0  0  0
    5.3355   -2.1999    0.5134 N   0  0  0  0  0  0  0  0  0  0  0  0
    4.4565   -1.2093    0.3774 C   0  0  0  0  0  0  0  0  0  0  0  0
    3.0428   -1.1699    0.3695 C   0  0  0  0  0  0  0  0  0  0  0  0
    0.5132    0.5395   -0.7635 H   0  0  0  0  0  0  0  0  0  0  0  0
    0.5096    0.7786    0.9921 H   0  0  0  0  0  0  0  0  0  0  0  0
    0.4180   -0.8700    0.3223 H   0  0  0  0  0  0  0  0  0  0  0  0
    2.6579    2.1914   -0.0932 H   0  0  0  0  0  0  0  0  0  0  0  0
    5.1829    2.0524   -0.0716 H   0  0  0  0  0  0  0  0  0  0  0  0
    7.6162   -3.2487    0.4965 H   0  0  0  0  0  0  0  0  0  0  0  0
    8.9137   -1.0277   -0.7010 H   0  0  0  0  0  0  0  0  0  0  0  0
    9.7037   -2.4573   -0.0049 H   0  0  0  0  0  0  0  0  0  0  0  0
    8.9051    0.1036    1.4778 H   0  0  0  0  0  0  0  0  0  0  0  0
   10.5469   -0.3810    1.0039 H   0  0  0  0  0  0  0  0  0  0  0  0
    8.7646   -1.8908    3.0072 H   0  0  0  0  0  0  0  0  0  0  0  0
   10.0331   -0.7430    3.4470 H   0  0  0  0  0  0  0  0  0  0  0  0
   13.2747   -4.2710    1.7785 H   0  0  0  0  0  0  0  0  0  0  0  0
    2.5016   -2.1085    0.4967 H   0  0  0  0  0  0  0  0  0  0  0  0
  1  2  1  0
  1 21  1  0
  1 22  1  0
  1 23  1  0
  2  3  1  0
  2 20  2  0
  3  4  2  0
  3 24  1  0
  4  5  1  0
  4 25  1  0
  5  6  1  0
  5 19  1  0
  6  7  2  0
  7  8  1  0
  7 18  1  0
  8  9  1  0
  8 26  1  0
  9 10  1  0
  9 27  1  0
  9 28  1  0
 10 11  1  0
 10 29  1  0
 10 30  1  0
 11 12  1  0
 11 31  1  0
 11 32  1  0
 12 13  2  0
 12 16  1  0
 13 14  1  0
 14 15  2  0
 14 33  1  0
 15 16  1  0
 16 17  1  0
 18 19  2  0
 19 20  1  0
 20 34  1  0
M  END

