
     RDKit          3D

 38 40  0  0  0  0  0  0  0  0999 V2000
    5.8098   -1.6418    0.6993 C   0  0  0  0  0  0  0  0  0  0  0  0
    4.7872   -0.5927    0.3959 C   0  0  0  0  0  0  0  0  0  0  0  0
    3.5137   -0.9115    0.2088 N   0  0  0  0  0  0  0  0  0  0  0  0
    2.8307    0.2423   -0.0445 N   0  0  0  0  0  0  0  0  0  0  0  0
    1.4062    0.2182   -0.2923 C   0  0  0  0  0  0  0  0  0  0  0  0
    3.6703    1.3001   -0.0201 C   0  0  0  0  0  0  0  0  0  0  0  0
    3.5762    3.0174   -0.2300 S   0  0  0  0  0  0  0  0  0  0  0  0
    5.3270    3.1095    0.0609 C   0  0  0  0  0  0  0  0  0  0  0  0
    5.9322    4.4453    0.0272 C   0  0  0  0  0  0  0  0  0  0  0  0
    5.3130    5.4729   -0.1307 O   0  0  0  0  0  0  0  0  0  0  0  0
    7.2795    4.3893    0.1896 O   0  0  0  0  0  0  0  0  0  0  0  0
    8.0051    5.6369    0.2410 C   0  0  1  0  0  0  0  0  0  0  0  0
    8.1863    6.0937    1.6815 C   0  0  0  0  0  0  0  0  0  0  0  0
    9.3531    5.4843   -0.4818 C   0  0  0  0  0  0  0  0  0  0  0  0
   10.1824    6.3736   -0.4138 O   0  0  0  0  0  0  0  0  0  0  0  0
    9.5223    4.3341   -1.1912 N   0  0  0  0  0  0  0  0  0  0  0  0
   10.6766    4.0966   -2.0057 C   0  0  1  0  0  0  0  0  0  0  0  0
   11.9797    3.7184   -1.3537 C   0  0  0  0  0  0  0  0  0  0  0  0
   11.1890    2.6851   -2.1150 C   0  0  0  0  0  0  0  0  0  0  0  0
    5.9103    1.8850    0.3063 C   0  0  0  0  0  0  0  0  0  0  0  0
    4.9606    0.8245    0.2610 C   0  0  0  0  0  0  0  0  0  0  0  0
    5.3319   -2.6306    0.7250 H   0  0  0  0  0  0  0  0  0  0  0  0
    6.2925   -1.4621    1.6744 H   0  0  0  0  0  0  0  0  0  0  0  0
    6.6068   -1.6589   -0.0625 H   0  0  0  0  0  0  0  0  0  0  0  0
    1.0782   -0.8249   -0.2135 H   0  0  0  0  0  0  0  0  0  0  0  0
    1.1737    0.5978   -1.3008 H   0  0  0  0  0  0  0  0  0  0  0  0
    0.8666    0.8269    0.4515 H   0  0  0  0  0  0  0  0  0  0  0  0
    7.4237    6.3895   -0.3145 H   0  0  0  0  0  0  0  0  0  0  0  0
    8.6798    5.3105    2.2778 H   0  0  0  0  0  0  0  0  0  0  0  0
    7.2125    6.3306    2.1340 H   0  0  0  0  0  0  0  0  0  0  0  0
    8.8180    6.9924    1.6917 H   0  0  0  0  0  0  0  0  0  0  0  0
    8.7417    3.6889   -1.2313 H   0  0  0  0  0  0  0  0  0  0  0  0
   10.7447    4.7290   -2.8997 H   0  0  0  0  0  0  0  0  0  0  0  0
   11.9882    3.6549   -0.2630 H   0  0  0  0  0  0  0  0  0  0  0  0
   12.8996    4.1113   -1.7943 H   0  0  0  0  0  0  0  0  0  0  0  0
   10.6707    1.9145   -1.5359 H   0  0  0  0  0  0  0  0  0  0  0  0
   11.5539    2.3465   -3.0884 H   0  0  0  0  0  0  0  0  0  0  0  0
    6.9751    1.7847    0.5168 H   0  0  0  0  0  0  0  0  0  0  0  0
  1  2  1  0
  1 22  1  0
  1 23  1  0
  1 24  1  0
  2  3  2  0
  2 21  1  0
  3  4  1  0
  4  5  1  0
  4  6  1  0
  5 25  1  0
  5 26  1  0
  5 27  1  0
  6  7  2  0
  6 21  1  0
  7  8  1  0
  8  9  2  0
  8 20  1  0
  9 10  1  0
  9 11  1  0
 11 12  1  0
 12 13  1  0
 12 14  1  0
 12 28  1  6
 13 29  1  0
 13 30  1  0
 13 31  1  0
 14 15  2  0
 14 16  1  0
 16 17  1  0
 16 32  1  0
 17 18  1  0
 17 19  1  0
 17 33  1  6
 18 19  1  0
 18 34  1  0
 18 35  1  0
 19 36  1  0
 19 37  1  0
 20 21  2  0
 20 38  1  0
M  CHG  2   7   1  10  -1
M  END

