
     RDKit          3D

 45 47  0  0  0  0  0  0  0  0999 V2000
   -0.8105   -0.1763   -2.4118 C   0  0  0  0  0  0  0  0  0  0  0  0
    0.6515    0.2845   -2.3585 C   0  0  1  0  0  0  0  0  0  0  0  0
    0.7463    1.6357   -1.6273 C   0  0  0  0  0  0  0  0  0  0  0  0
    1.5221   -0.7764   -1.6394 C   0  0  0  0  0  0  0  0  0  0  0  0
    2.9508   -0.5617   -1.7387 N   0  0  0  0  0  0  0  0  0  0  0  0
    3.4062    0.0353   -2.7804 C   0  0  0  0  0  0  0  0  0  0  0  0
    4.7828    0.1379   -2.9510 N   0  0  0  0  0  0  0  0  0  0  0  0
    5.4466    1.2556   -3.6017 C   0  0  0  0  0  0  0  0  0  0  0  0
    6.0295    0.9240   -5.0063 C   0  0  2  0  0  0  0  0  0  0  0  0
    7.0327   -0.2392   -4.9556 C   0  0  0  0  0  0  0  0  0  0  0  0
    8.3959    0.2129   -4.4261 C   0  0  0  0  0  0  0  0  0  0  0  0
    9.0007    1.2773   -5.3441 C   0  0  0  0  0  0  0  0  0  0  0  0
    8.0193    2.3635   -5.7474 C   0  0  0  0  0  0  0  0  0  0  0  0
    8.5045    3.5637   -6.2950 C   0  0  0  0  0  0  0  0  0  0  0  0
    7.6426    4.5678   -6.7329 C   0  0  0  0  0  0  0  0  0  0  0  0
    6.2600    4.3808   -6.6331 C   0  0  0  0  0  0  0  0  0  0  0  0
    5.7672    3.1961   -6.0885 C   0  0  0  0  0  0  0  0  0  0  0  0
    6.6250    2.1773   -5.6363 C   0  0  0  0  0  0  0  0  0  0  0  0
    2.6393    0.6306   -3.7717 N   0  0  0  0  0  0  0  0  0  0  0  0
    1.2012    0.4078   -3.7926 C   0  0  0  0  0  0  0  0  0  0  0  0
   -1.2155   -0.3048   -1.3948 H   0  0  0  0  0  0  0  0  0  0  0  0
   -0.9127   -1.1407   -2.9363 H   0  0  0  0  0  0  0  0  0  0  0  0
   -1.4460    0.5605   -2.9317 H   0  0  0  0  0  0  0  0  0  0  0  0
    0.3428    1.5490   -0.6054 H   0  0  0  0  0  0  0  0  0  0  0  0
    0.1665    2.4123   -2.1537 H   0  0  0  0  0  0  0  0  0  0  0  0
    1.7863    1.9828   -1.5467 H   0  0  0  0  0  0  0  0  0  0  0  0
    1.2609   -1.7793   -2.0372 H   0  0  0  0  0  0  0  0  0  0  0  0
    1.2411   -0.8048   -0.5708 H   0  0  0  0  0  0  0  0  0  0  0  0
    5.2589   -0.2763   -2.1576 H   0  0  0  0  0  0  0  0  0  0  0  0
    6.2614    1.6161   -2.9523 H   0  0  0  0  0  0  0  0  0  0  0  0
    4.7454    2.0996   -3.6984 H   0  0  0  0  0  0  0  0  0  0  0  0
    5.1752    0.6058   -5.6320 H   0  0  0  0  0  0  0  0  0  0  0  0
    7.1613   -0.6531   -5.9713 H   0  0  0  0  0  0  0  0  0  0  0  0
    6.6111   -1.0487   -4.3390 H   0  0  0  0  0  0  0  0  0  0  0  0
    9.0815   -0.6460   -4.3426 H   0  0  0  0  0  0  0  0  0  0  0  0
    8.2888    0.6187   -3.4044 H   0  0  0  0  0  0  0  0  0  0  0  0
    9.3682    0.7876   -6.2661 H   0  0  0  0  0  0  0  0  0  0  0  0
    9.8896    1.7357   -4.8791 H   0  0  0  0  0  0  0  0  0  0  0  0
    9.5864    3.7059   -6.3794 H   0  0  0  0  0  0  0  0  0  0  0  0
    8.0464    5.4922   -7.1539 H   0  0  0  0  0  0  0  0  0  0  0  0
    5.5700    5.1545   -6.9797 H   0  0  0  0  0  0  0  0  0  0  0  0
    4.6845    3.0503   -6.0168 H   0  0  0  0  0  0  0  0  0  0  0  0
    3.0831    0.7577   -4.6731 H   0  0  0  0  0  0  0  0  0  0  0  0
    0.9455   -0.5131   -4.3546 H   0  0  0  0  0  0  0  0  0  0  0  0
    0.7157    1.2494   -4.3162 H   0  0  0  0  0  0  0  0  0  0  0  0
  2  1  1  6
  1 21  1  0
  1 22  1  0
  1 23  1  0
  2  3  1  0
  2  4  1  0
  2 20  1  0
  3 24  1  0
  3 25  1  0
  3 26  1  0
  4  5  1  0
  4 27  1  0
  4 28  1  0
  5  6  2  0
  6  7  1  0
  6 19  1  0
  7  8  1  0
  7 29  1  0
  8  9  1  0
  8 30  1  0
  8 31  1  0
  9 10  1  0
  9 18  1  0
  9 32  1  6
 10 11  1  0
 10 33  1  0
 10 34  1  0
 11 12  1  0
 11 35  1  0
 11 36  1  0
 12 13  1  0
 12 37  1  0
 12 38  1  0
 13 14  2  0
 13 18  1  0
 14 15  1  0
 14 39  1  0
 15 16  2  0
 15 40  1  0
 16 17  1  0
 16 41  1  0
 17 18  2  0
 17 42  1  0
 19 20  1  0
 19 43  1  0
 20 44  1  0
 20 45  1  0
M  END

