
     RDKit          3D

 44 44  0  0  0  0  0  0  0  0999 V2000
    2.9150   -0.3854   -1.0553 C   0  0  0  0  0  0  0  0  0  0  0  0
    2.7089   -0.2741    0.3346 O   0  0  0  0  0  0  0  0  0  0  0  0
    3.2576    0.7697    1.0059 C   0  0  0  0  0  0  0  0  0  0  0  0
    4.0363    1.7765    0.4170 C   0  0  0  0  0  0  0  0  0  0  0  0
    4.5541    2.8067    1.2109 C   0  0  0  0  0  0  0  0  0  0  0  0
    4.3129    2.8715    2.5875 C   0  0  0  0  0  0  0  0  0  0  0  0
    4.9056    3.9918    3.4267 C   0  0  1  0  0  0  0  0  0  0  0  0
    3.8493    4.7841    4.2216 C   0  0  0  0  0  0  0  0  0  0  0  0
    4.4210    5.9999    4.9660 C   0  0  0  0  0  0  0  0  0  0  0  0
    5.1318    6.8769    4.1334 O   0  0  0  0  0  0  0  0  0  0  0  0
    5.9797    3.4602    4.2823 N   0  0  0  0  0  0  0  0  0  0  0  0
    7.1773    4.1090    4.4427 C   0  0  0  0  0  0  0  0  0  0  0  0
    7.3765    5.2583    4.0345 O   0  0  0  0  0  0  0  0  0  0  0  0
    8.1522    3.3966    5.0923 N   0  0  0  0  0  0  0  0  0  0  0  0
    9.4100    4.0107    5.4693 C   0  0  0  0  0  0  0  0  0  0  0  0
    9.3530    4.8302    6.7721 C   0  0  0  0  0  0  0  0  0  0  0  0
    8.6289    4.1238    7.9407 C   0  0  0  0  0  0  0  0  0  0  0  0
    9.1331    2.7092    8.1830 C   0  0  0  0  0  0  0  0  0  0  0  0
    8.7892    1.7614    7.5203 O   0  0  0  0  0  0  0  0  0  0  0  0
   10.0470    2.5456    9.1615 O   0  0  0  0  0  0  0  0  0  0  0  0
    3.5241    1.8546    3.1596 C   0  0  0  0  0  0  0  0  0  0  0  0
    3.0074    0.8184    2.3889 C   0  0  0  0  0  0  0  0  0  0  0  0
    2.3857   -1.2917   -1.3791 H   0  0  0  0  0  0  0  0  0  0  0  0
    3.9863   -0.4890   -1.3063 H   0  0  0  0  0  0  0  0  0  0  0  0
    2.5053    0.4823   -1.6036 H   0  0  0  0  0  0  0  0  0  0  0  0
    4.2477    1.7715   -0.6525 H   0  0  0  0  0  0  0  0  0  0  0  0
    5.1626    3.5826    0.7378 H   0  0  0  0  0  0  0  0  0  0  0  0
    5.3865    4.7095    2.7465 H   0  0  0  0  0  0  0  0  0  0  0  0
    3.3383    4.1249    4.9461 H   0  0  0  0  0  0  0  0  0  0  0  0
    3.0867    5.1305    3.5037 H   0  0  0  0  0  0  0  0  0  0  0  0
    5.0425    5.6482    5.8161 H   0  0  0  0  0  0  0  0  0  0  0  0
    3.5809    6.5621    5.4106 H   0  0  0  0  0  0  0  0  0  0  0  0
    6.0116    6.4734    3.9886 H   0  0  0  0  0  0  0  0  0  0  0  0
    5.9319    2.4752    4.5159 H   0  0  0  0  0  0  0  0  0  0  0  0
    7.9245    2.5316    5.5749 H   0  0  0  0  0  0  0  0  0  0  0  0
    9.7299    4.6721    4.6518 H   0  0  0  0  0  0  0  0  0  0  0  0
   10.1561    3.2060    5.5572 H   0  0  0  0  0  0  0  0  0  0  0  0
    8.8268    5.7779    6.5781 H   0  0  0  0  0  0  0  0  0  0  0  0
   10.3845    5.0914    7.0665 H   0  0  0  0  0  0  0  0  0  0  0  0
    7.5592    4.0371    7.7003 H   0  0  0  0  0  0  0  0  0  0  0  0
    8.7070    4.7382    8.8532 H   0  0  0  0  0  0  0  0  0  0  0  0
   10.2149    3.3855    9.6117 H   0  0  0  0  0  0  0  0  0  0  0  0
    3.3004    1.8718    4.2303 H   0  0  0  0  0  0  0  0  0  0  0  0
    2.3955    0.0303    2.8326 H   0  0  0  0  0  0  0  0  0  0  0  0
  1  2  1  0
  1 23  1  0
  1 24  1  0
  1 25  1  0
  2  3  1  0
  3  4  2  0
  3 22  1  0
  4  5  1  0
  4 26  1  0
  5  6  2  0
  5 27  1  0
  6  7  1  0
  6 21  1  0
  7  8  1  0
  7 11  1  0
  7 28  1  6
  8  9  1  0
  8 29  1  0
  8 30  1  0
  9 10  1  0
  9 31  1  0
  9 32  1  0
 10 33  1  0
 11 12  1  0
 11 34  1  0
 12 13  2  0
 12 14  1  0
 14 15  1  0
 14 35  1  0
 15 16  1  0
 15 36  1  0
 15 37  1  0
 16 17  1  0
 16 38  1  0
 16 39  1  0
 17 18  1  0
 17 40  1  0
 17 41  1  0
 18 19  2  0
 18 20  1  0
 20 42  1  0
 21 22  2  0
 21 43  1  0
 22 44  1  0
M  END

