
     RDKit          3D

 65 66  0  0  0  0  0  0  0  0999 V2000
    4.8635    2.2524    0.2514 C   0  0  0  0  0  0  0  0  0  0  0  0
    4.7441    0.9497   -0.3525 N   0  0  0  0  0  0  0  0  0  0  0  0
    4.7979    0.8318   -1.6306 C   0  0  0  0  0  0  0  0  0  0  0  0
    5.0864    1.8636   -2.5146 N   0  0  0  0  0  0  0  0  0  0  0  0
    4.8152    1.8980   -3.9351 C   0  0  0  0  0  0  0  0  0  0  0  0
    4.0921    3.1613   -4.4407 C   0  0  0  0  0  0  0  0  0  0  0  0
    4.2120    3.4960   -5.6093 O   0  0  0  0  0  0  0  0  0  0  0  0
    3.3267    3.8002   -3.5186 N   0  0  0  0  0  0  0  0  0  0  0  0
    2.4689    4.9802   -3.7677 C   0  0  1  0  0  0  0  0  0  0  0  0
    1.3915    4.6365   -4.8134 C   0  0  0  0  0  0  0  0  0  0  0  0
    1.8082    5.3312   -2.4267 C   0  0  0  0  0  0  0  0  0  0  0  0
    3.3316    6.1597   -4.2532 C   0  0  0  0  0  0  0  0  0  0  0  0
    4.5029   -0.4063   -2.2166 N   0  0  0  0  0  0  0  0  0  0  0  0
    5.5240   -1.1265   -2.9803 C   0  0  0  0  0  0  0  0  0  0  0  0
    6.8600   -1.4024   -2.2459 C   0  0  1  0  0  0  0  0  0  0  0  0
    6.6785   -2.0402   -0.8582 C   0  0  0  0  0  0  0  0  0  0  0  0
    6.1530   -3.4738   -0.9670 C   0  0  0  0  0  0  0  0  0  0  0  0
    7.0383   -4.3233   -1.8802 C   0  0  0  0  0  0  0  0  0  0  0  0
    7.2955   -3.6696   -3.1570 N   0  0  0  0  0  0  0  0  0  0  0  0
    7.9384   -4.5235   -4.1328 C   0  0  0  0  0  0  0  0  0  0  0  0
    7.7611   -2.2805   -3.1602 C   0  0  2  0  0  0  0  0  0  0  0  0
    9.2596   -2.0394   -2.9211 C   0  0  0  0  0  0  0  0  0  0  0  0
    9.9457   -1.1821   -3.7991 C   0  0  0  0  0  0  0  0  0  0  0  0
   11.2994   -0.8904   -3.6342 C   0  0  0  0  0  0  0  0  0  0  0  0
   12.0116   -1.4680   -2.5778 C   0  0  0  0  0  0  0  0  0  0  0  0
   13.4882   -1.2086   -2.4248 C   0  0  1  0  0  0  0  0  0  0  0  0
   13.8340    0.0077   -2.8844 F   0  0  0  0  0  0  0  0  0  0  0  0
   13.8800   -1.2818   -1.1397 F   0  0  0  0  0  0  0  0  0  0  0  0
   14.2258   -2.1069   -3.1082 F   0  0  0  0  0  0  0  0  0  0  0  0
   11.3519   -2.3293   -1.6952 C   0  0  0  0  0  0  0  0  0  0  0  0
    9.9942   -2.6078   -1.8647 C   0  0  0  0  0  0  0  0  0  0  0  0
    4.5372    2.2114    1.3025 H   0  0  0  0  0  0  0  0  0  0  0  0
    4.2575    3.0385   -0.2499 H   0  0  0  0  0  0  0  0  0  0  0  0
    5.9110    2.6214    0.2649 H   0  0  0  0  0  0  0  0  0  0  0  0
    5.5892    2.6524   -2.1264 H   0  0  0  0  0  0  0  0  0  0  0  0
    4.1695    1.0411   -4.1786 H   0  0  0  0  0  0  0  0  0  0  0  0
    5.7230    1.8114   -4.5572 H   0  0  0  0  0  0  0  0  0  0  0  0
    3.2827    3.3702   -2.6008 H   0  0  0  0  0  0  0  0  0  0  0  0
    0.7618    3.8030   -4.4627 H   0  0  0  0  0  0  0  0  0  0  0  0
    1.8596    4.3454   -5.7637 H   0  0  0  0  0  0  0  0  0  0  0  0
    0.7404    5.5066   -4.9932 H   0  0  0  0  0  0  0  0  0  0  0  0
    1.1904    4.4968   -2.0551 H   0  0  0  0  0  0  0  0  0  0  0  0
    1.1532    6.2076   -2.5422 H   0  0  0  0  0  0  0  0  0  0  0  0
    2.5638    5.5733   -1.6611 H   0  0  0  0  0  0  0  0  0  0  0  0
    3.8403    5.9028   -5.1919 H   0  0  0  0  0  0  0  0  0  0  0  0
    4.0939    6.4180   -3.5006 H   0  0  0  0  0  0  0  0  0  0  0  0
    2.7020    7.0472   -4.4231 H   0  0  0  0  0  0  0  0  0  0  0  0
    4.0760   -0.9891   -1.5013 H   0  0  0  0  0  0  0  0  0  0  0  0
    5.7500   -0.5721   -3.9045 H   0  0  0  0  0  0  0  0  0  0  0  0
    5.0796   -2.0785   -3.3064 H   0  0  0  0  0  0  0  0  0  0  0  0
    7.3687   -0.4326   -2.1154 H   0  0  0  0  0  0  0  0  0  0  0  0
    6.0137   -1.4122   -0.2447 H   0  0  0  0  0  0  0  0  0  0  0  0
    7.6511   -2.0429   -0.3370 H   0  0  0  0  0  0  0  0  0  0  0  0
    5.1233   -3.4721   -1.3648 H   0  0  0  0  0  0  0  0  0  0  0  0
    6.0994   -3.9433    0.0290 H   0  0  0  0  0  0  0  0  0  0  0  0
    6.5350   -5.2814   -2.0971 H   0  0  0  0  0  0  0  0  0  0  0  0
    7.9726   -4.6011   -1.3409 H   0  0  0  0  0  0  0  0  0  0  0  0
    7.3578   -5.4528   -4.2567 H   0  0  0  0  0  0  0  0  0  0  0  0
    8.9793   -4.8131   -3.8682 H   0  0  0  0  0  0  0  0  0  0  0  0
    7.9756   -4.0184   -5.1118 H   0  0  0  0  0  0  0  0  0  0  0  0
    7.5896   -1.9244   -4.1922 H   0  0  0  0  0  0  0  0  0  0  0  0
    9.4046   -0.7306   -4.6359 H   0  0  0  0  0  0  0  0  0  0  0  0
   11.8039   -0.2136   -4.3266 H   0  0  0  0  0  0  0  0  0  0  0  0
   11.8996   -2.7787   -0.8646 H   0  0  0  0  0  0  0  0  0  0  0  0
    9.5125   -3.2801   -1.1566 H   0  0  0  0  0  0  0  0  0  0  0  0
  1  2  1  0
  1 32  1  0
  1 33  1  0
  1 34  1  0
  2  3  2  0
  3  4  1  0
  3 13  1  0
  4  5  1  0
  4 35  1  0
  5  6  1  0
  5 36  1  0
  5 37  1  0
  6  7  2  0
  6  8  1  0
  9  8  1  1
  8 38  1  0
  9 10  1  0
  9 11  1  0
  9 12  1  0
 10 39  1  0
 10 40  1  0
 10 41  1  0
 11 42  1  0
 11 43  1  0
 11 44  1  0
 12 45  1  0
 12 46  1  0
 12 47  1  0
 13 14  1  0
 13 48  1  0
 14 15  1  0
 14 49  1  0
 14 50  1  0
 15 16  1  0
 15 21  1  0
 15 51  1  1
 16 17  1  0
 16 52  1  0
 16 53  1  0
 17 18  1  0
 17 54  1  0
 17 55  1  0
 18 19  1  0
 18 56  1  0
 18 57  1  0
 19 20  1  0
 19 21  1  0
 20 58  1  0
 20 59  1  0
 20 60  1  0
 21 22  1  0
 21 61  1  6
 22 23  2  0
 22 31  1  0
 23 24  1  0
 23 62  1  0
 24 25  2  0
 24 63  1  0
 25 26  1  0
 25 30  1  0
 26 27  1  6
 26 28  1  0
 26 29  1  0
 30 31  2  0
 30 64  1  0
 31 65  1  0
M  END

