
     RDKit          3D

 33 34  0  0  0  0  0  0  0  0999 V2000
    3.5045   -2.6873   -4.3226 C   0  0  0  0  0  0  0  0  0  0  0  0
    4.3313   -2.0127   -3.2546 C   0  0  0  0  0  0  0  0  0  0  0  0
    5.2440   -0.9933   -3.5509 C   0  0  0  0  0  0  0  0  0  0  0  0
    6.0059   -0.3725   -2.5598 C   0  0  0  0  0  0  0  0  0  0  0  0
    5.8920   -0.7410   -1.2027 C   0  0  0  0  0  0  0  0  0  0  0  0
    6.6385   -0.1478   -0.2049 N   0  0  0  0  0  0  0  0  0  0  0  0
    7.4165    1.0638   -0.3695 C   0  0  1  0  0  0  0  0  0  0  0  0
    7.6156    1.7169    1.0069 C   0  0  0  0  0  0  0  0  0  0  0  0
    8.7659    0.8311   -1.0565 C   0  0  0  0  0  0  0  0  0  0  0  0
    9.3647    1.8557   -1.8035 C   0  0  0  0  0  0  0  0  0  0  0  0
   10.6224    1.6784   -2.3834 C   0  0  0  0  0  0  0  0  0  0  0  0
   11.2906    0.4678   -2.2211 C   0  0  0  0  0  0  0  0  0  0  0  0
   12.4907    0.2959   -2.7794 F   0  0  0  0  0  0  0  0  0  0  0  0
   10.7057   -0.5690   -1.4839 C   0  0  0  0  0  0  0  0  0  0  0  0
   11.5555   -2.0774   -1.3046 Cl  0  0  0  0  0  0  0  0  0  0  0  0
    9.4475   -0.3825   -0.9070 C   0  0  0  0  0  0  0  0  0  0  0  0
    4.9663   -1.7752   -0.9163 C   0  0  0  0  0  0  0  0  0  0  0  0
    4.7343   -2.3506    0.9021 Br  0  0  0  0  0  0  0  0  0  0  0  0
    4.2104   -2.3918   -1.9077 C   0  0  0  0  0  0  0  0  0  0  0  0
    3.7454   -2.2945   -5.3216 H   0  0  0  0  0  0  0  0  0  0  0  0
    2.4242   -2.5355   -4.1567 H   0  0  0  0  0  0  0  0  0  0  0  0
    3.6765   -3.7767   -4.3420 H   0  0  0  0  0  0  0  0  0  0  0  0
    5.3730   -0.6719   -4.5883 H   0  0  0  0  0  0  0  0  0  0  0  0
    6.7180    0.4019   -2.8456 H   0  0  0  0  0  0  0  0  0  0  0  0
    6.3755   -0.3997    0.7405 H   0  0  0  0  0  0  0  0  0  0  0  0
    6.8512    1.7790   -0.9989 H   0  0  0  0  0  0  0  0  0  0  0  0
    8.1683    1.0413    1.6799 H   0  0  0  0  0  0  0  0  0  0  0  0
    6.6441    1.9586    1.4671 H   0  0  0  0  0  0  0  0  0  0  0  0
    8.1965    2.6454    0.9148 H   0  0  0  0  0  0  0  0  0  0  0  0
    8.8426    2.8072   -1.9402 H   0  0  0  0  0  0  0  0  0  0  0  0
   11.1007    2.4648   -2.9711 H   0  0  0  0  0  0  0  0  0  0  0  0
    8.9890   -1.1987   -0.3466 H   0  0  0  0  0  0  0  0  0  0  0  0
    3.5122   -3.1822   -1.6228 H   0  0  0  0  0  0  0  0  0  0  0  0
  1  2  1  0
  1 20  1  0
  1 21  1  0
  1 22  1  0
  2  3  2  0
  2 19  1  0
  3  4  1  0
  3 23  1  0
  4  5  2  0
  4 24  1  0
  5  6  1  0
  5 17  1  0
  6  7  1  0
  6 25  1  0
  7  8  1  0
  7  9  1  0
  7 26  1  6
  8 27  1  0
  8 28  1  0
  8 29  1  0
  9 10  2  0
  9 16  1  0
 10 11  1  0
 10 30  1  0
 11 12  2  0
 11 31  1  0
 12 13  1  0
 12 14  1  0
 14 15  1  0
 14 16  2  0
 16 32  1  0
 17 18  1  0
 17 19  2  0
 19 33  1  0
M  END

