
     RDKit          3D

 58 63  0  0  0  0  0  0  0  0999 V2000
    3.2495    0.1389    2.9162 C   0  0  0  0  0  0  0  0  0  0  0  0
    2.8743    0.2732    1.4310 C   0  0  0  0  0  0  0  0  0  0  0  0
    2.9761    1.6774    0.8984 C   0  0  0  0  0  0  0  0  0  0  0  0
    1.9751    2.6534    0.8664 C   0  0  0  0  0  0  0  0  0  0  0  0
    0.5641    2.4716    1.3386 C   0  0  0  0  0  0  0  0  0  0  0  0
    2.5663    3.8342    0.2947 C   0  0  0  0  0  0  0  0  0  0  0  0
    3.8997    3.5426    0.0032 N   0  0  0  0  0  0  0  0  0  0  0  0
    4.1552    2.2719    0.3601 C   0  0  0  0  0  0  0  0  0  0  0  0
    5.5025    1.6526    0.1847 C   0  0  0  0  0  0  0  0  0  0  0  0
    4.9471    4.5281   -0.6091 B   0  0  2  0  0  0  0  0  0  0  0  0
    5.4485    3.9937   -1.7989 F   0  0  0  0  0  0  0  0  0  0  0  0
    5.9779    4.7473    0.2939 F   0  0  0  0  0  0  0  0  0  0  0  0
    4.1847    5.8573   -0.8993 N   0  0  0  0  0  0  0  0  0  0  0  0
    4.7176    6.9887   -1.4450 C   0  0  0  0  0  0  0  0  0  0  0  0
    6.0614    6.9977   -1.9798 C   0  0  0  0  0  0  0  0  0  0  0  0
    6.9363    8.0232   -2.1900 C   0  0  0  0  0  0  0  0  0  0  0  0
    8.1847    7.8394   -2.9686 C   0  0  0  0  0  0  0  0  0  0  0  0
    8.7109    6.7016   -3.5863 C   0  0  0  0  0  0  0  0  0  0  0  0
    9.9116    6.8089   -4.2975 C   0  0  0  0  0  0  0  0  0  0  0  0
   10.5765    8.0394   -4.3995 C   0  0  0  0  0  0  0  0  0  0  0  0
   10.0542    9.1845   -3.7864 C   0  0  0  0  0  0  0  0  0  0  0  0
    8.8607    9.0798   -3.0694 C   0  0  0  0  0  0  0  0  0  0  0  0
    8.0932   10.0768   -2.3116 C   0  0  0  0  0  0  0  0  0  0  0  0
    8.3650   11.4210   -2.0534 C   0  0  0  0  0  0  0  0  0  0  0  0
    7.4995   12.1431   -1.2238 C   0  0  0  0  0  0  0  0  0  0  0  0
    6.3877   11.5174   -0.6460 C   0  0  0  0  0  0  0  0  0  0  0  0
    6.1053   10.1713   -0.9087 C   0  0  0  0  0  0  0  0  0  0  0  0
    6.9406    9.4445   -1.7656 C   0  0  0  0  0  0  0  0  0  0  0  0
    3.6998    7.9830   -1.4966 C   0  0  0  0  0  0  0  0  0  0  0  0
    2.5489    7.4277   -0.9612 C   0  0  0  0  0  0  0  0  0  0  0  0
    2.8597    6.0929   -0.5779 C   0  0  0  0  0  0  0  0  0  0  0  0
    2.0394    5.1039    0.0165 C   0  0  0  0  0  0  0  0  0  0  0  0
    0.6067    5.4385    0.3352 C   0  0  0  0  0  0  0  0  0  0  0  0
    3.1633   -0.9064    3.2544 H   0  0  0  0  0  0  0  0  0  0  0  0
    2.5928    0.7563    3.5499 H   0  0  0  0  0  0  0  0  0  0  0  0
    4.2846    0.4693    3.0982 H   0  0  0  0  0  0  0  0  0  0  0  0
    1.8491   -0.1033    1.2808 H   0  0  0  0  0  0  0  0  0  0  0  0
    3.5190   -0.3924    0.8333 H   0  0  0  0  0  0  0  0  0  0  0  0
    0.4037    1.4482    1.7041 H   0  0  0  0  0  0  0  0  0  0  0  0
   -0.1707    2.6532    0.5377 H   0  0  0  0  0  0  0  0  0  0  0  0
    0.3112    3.1560    2.1649 H   0  0  0  0  0  0  0  0  0  0  0  0
    5.8044    1.6813   -0.8737 H   0  0  0  0  0  0  0  0  0  0  0  0
    5.5135    0.6133    0.5359 H   0  0  0  0  0  0  0  0  0  0  0  0
    6.2615    2.2278    0.7380 H   0  0  0  0  0  0  0  0  0  0  0  0
    6.3970    6.0068   -2.2956 H   0  0  0  0  0  0  0  0  0  0  0  0
    8.2016    5.7372   -3.5180 H   0  0  0  0  0  0  0  0  0  0  0  0
   10.3346    5.9237   -4.7791 H   0  0  0  0  0  0  0  0  0  0  0  0
   11.5112    8.1043   -4.9624 H   0  0  0  0  0  0  0  0  0  0  0  0
   10.5767   10.1409   -3.8693 H   0  0  0  0  0  0  0  0  0  0  0  0
    9.2492   11.9020   -2.4794 H   0  0  0  0  0  0  0  0  0  0  0  0
    7.7018   13.1962   -1.0121 H   0  0  0  0  0  0  0  0  0  0  0  0
    5.7344   12.0828    0.0233 H   0  0  0  0  0  0  0  0  0  0  0  0
    5.2498    9.6996   -0.4268 H   0  0  0  0  0  0  0  0  0  0  0  0
    3.8072    8.9700   -1.9368 H   0  0  0  0  0  0  0  0  0  0  0  0
    1.5813    7.9148   -0.8687 H   0  0  0  0  0  0  0  0  0  0  0  0
    0.3615    6.4744    0.0771 H   0  0  0  0  0  0  0  0  0  0  0  0
    0.3962    5.3014    1.4067 H   0  0  0  0  0  0  0  0  0  0  0  0
   -0.0859    4.7823   -0.2140 H   0  0  0  0  0  0  0  0  0  0  0  0
  1  2  1  0
  1 34  1  0
  1 35  1  0
  1 36  1  0
  2  3  1  0
  2 37  1  0
  2 38  1  0
  3  4  1  0
  3  8  2  0
  4  5  1  0
  4  6  2  0
  5 39  1  0
  5 40  1  0
  5 41  1  0
  6  7  1  0
  6 32  1  0
  7  8  1  0
  7 10  1  0
  8  9  1  0
  9 42  1  0
  9 43  1  0
  9 44  1  0
 10 11  1  6
 10 12  1  0
 10 13  1  0
 13 14  2  0
 13 31  1  0
 14 15  1  0
 14 29  1  0
 15 16  2  0
 15 45  1  0
 16 17  1  0
 16 28  1  0
 17 18  2  0
 17 22  1  0
 18 19  1  0
 18 46  1  0
 19 20  2  0
 19 47  1  0
 20 21  1  0
 20 48  1  0
 21 22  2  0
 21 49  1  0
 22 23  1  0
 23 24  2  0
 23 28  1  0
 24 25  1  0
 24 50  1  0
 25 26  2  0
 25 51  1  0
 26 27  1  0
 26 52  1  0
 27 28  2  0
 27 53  1  0
 29 30  2  0
 29 54  1  0
 30 31  1  0
 30 55  1  0
 31 32  2  0
 32 33  1  0
 33 56  1  0
 33 57  1  0
 33 58  1  0
M  CHG  2  10  -1  13   1
M  END

