
     RDKit          3D

 34 35  0  0  0  0  0  0  0  0999 V2000
    1.0153    0.0343    0.4472 C   0  0  0  0  0  0  0  0  0  0  0  0
    2.4860    0.0432    0.1136 C   0  0  0  0  0  0  0  0  0  0  0  0
    3.1829    1.2534   -0.0142 C   0  0  0  0  0  0  0  0  0  0  0  0
    4.5427    1.2908   -0.3243 C   0  0  0  0  0  0  0  0  0  0  0  0
    5.2598    0.1023   -0.5259 C   0  0  0  0  0  0  0  0  0  0  0  0
    6.7550    0.1308   -0.7938 C   0  0  1  0  0  0  0  0  0  0  0  0
    7.5656    0.1417    0.5209 C   0  0  0  0  0  0  0  0  0  0  0  0
    8.6787    0.5915    0.6074 O   0  0  0  0  0  0  0  0  0  0  0  0
    6.9864   -0.4480    1.5829 O   0  0  0  0  0  0  0  0  0  0  0  0
    7.3360   -0.9780   -1.7529 C   0  0  0  0  0  0  0  0  0  0  0  0
    7.9626    0.1152   -2.6624 C   0  0  2  0  0  0  0  0  0  0  0  0
    9.4851    0.1551   -2.7108 C   0  0  0  0  0  0  0  0  0  0  0  0
    7.2785    1.2088   -1.7951 C   0  0  0  0  0  0  0  0  0  0  0  0
    4.5612   -1.1110   -0.3949 C   0  0  0  0  0  0  0  0  0  0  0  0
    3.1943   -1.1647   -0.0800 C   0  0  0  0  0  0  0  0  0  0  0  0
    2.4938   -2.4955    0.0396 C   0  0  0  0  0  0  0  0  0  0  0  0
    0.6255    1.0556    0.5660 H   0  0  0  0  0  0  0  0  0  0  0  0
    0.8132   -0.5136    1.3834 H   0  0  0  0  0  0  0  0  0  0  0  0
    0.4222   -0.4624   -0.3395 H   0  0  0  0  0  0  0  0  0  0  0  0
    2.6440    2.1935    0.1352 H   0  0  0  0  0  0  0  0  0  0  0  0
    5.0495    2.2555   -0.4078 H   0  0  0  0  0  0  0  0  0  0  0  0
    6.0700   -0.6888    1.3647 H   0  0  0  0  0  0  0  0  0  0  0  0
    6.5464   -1.5640   -2.2435 H   0  0  0  0  0  0  0  0  0  0  0  0
    8.0517   -1.6726   -1.2877 H   0  0  0  0  0  0  0  0  0  0  0  0
    7.5600    0.0790   -3.6877 H   0  0  0  0  0  0  0  0  0  0  0  0
    9.9051    0.2119   -1.6948 H   0  0  0  0  0  0  0  0  0  0  0  0
    9.8382    1.0353   -3.2737 H   0  0  0  0  0  0  0  0  0  0  0  0
    9.8907   -0.7432   -3.2061 H   0  0  0  0  0  0  0  0  0  0  0  0
    6.4659    1.7391   -2.3104 H   0  0  0  0  0  0  0  0  0  0  0  0
    7.9658    1.9364   -1.3430 H   0  0  0  0  0  0  0  0  0  0  0  0
    5.0916   -2.0546   -0.5549 H   0  0  0  0  0  0  0  0  0  0  0  0
    3.1844   -3.3322   -0.1393 H   0  0  0  0  0  0  0  0  0  0  0  0
    1.6649   -2.5834   -0.6833 H   0  0  0  0  0  0  0  0  0  0  0  0
    2.0500   -2.6330    1.0403 H   0  0  0  0  0  0  0  0  0  0  0  0
  1  2  1  0
  1 17  1  0
  1 18  1  0
  1 19  1  0
  2  3  2  0
  2 15  1  0
  3  4  1  0
  3 20  1  0
  4  5  2  0
  4 21  1  0
  5  6  1  0
  5 14  1  0
  6  7  1  1
  6 10  1  0
  6 13  1  0
  7  8  2  0
  7  9  1  0
  9 22  1  0
 10 11  1  0
 10 23  1  0
 10 24  1  0
 11 12  1  0
 11 13  1  0
 11 25  1  6
 12 26  1  0
 12 27  1  0
 12 28  1  0
 13 29  1  0
 13 30  1  0
 14 15  2  0
 14 31  1  0
 15 16  1  0
 16 32  1  0
 16 33  1  0
 16 34  1  0
M  END

