
     RDKit          3D

 48 50  0  0  0  0  0  0  0  0999 V2000
    0.8328    0.6143   -0.4074 C   0  0  0  0  0  0  0  0  0  0  0  0
    2.2695    0.1830   -0.0581 C   0  0  1  0  0  0  0  0  0  0  0  0
    2.3715    0.2510    1.4767 C   0  0  0  0  0  0  0  0  0  0  0  0
    2.6845   -1.1949   -0.6634 C   0  0  1  0  0  0  0  0  0  0  0  0
    2.5927   -0.9409   -2.1847 C   0  0  0  0  0  0  0  0  0  0  0  0
    3.0771    0.5335   -2.3162 C   0  0  0  0  0  0  0  0  0  0  0  0
    3.3860    0.9638   -0.8530 C   0  0  1  0  0  0  0  0  0  0  0  0
    3.4872    2.4691   -0.6630 C   0  0  0  0  0  0  0  0  0  0  0  0
    4.6978    0.1709   -0.5001 C   0  0  1  0  0  0  0  0  0  0  0  0
    5.4678    0.6674    0.6305 N   0  0  0  0  0  0  0  0  0  0  0  0
    6.6191    1.3851    0.4739 C   0  0  0  0  0  0  0  0  0  0  0  0
    7.0859    1.6731   -0.6186 O   0  0  0  0  0  0  0  0  0  0  0  0
    7.3206    1.8030    1.7476 C   0  0  0  0  0  0  0  0  0  0  0  0
    8.6912    2.0934    1.6542 C   0  0  0  0  0  0  0  0  0  0  0  0
    9.4106    2.4930    2.7793 C   0  0  0  0  0  0  0  0  0  0  0  0
    8.7402    2.6311    3.9986 C   0  0  0  0  0  0  0  0  0  0  0  0
    9.6617    3.1455    5.4645 S   0  0  1  0  0  0  0  0  0  0  0  0
    9.5832    4.9510    5.4265 C   0  0  0  0  0  0  0  0  0  0  0  0
    8.9071    2.7027    6.6452 O   0  0  0  0  0  0  0  0  0  0  0  0
   11.0673    2.7674    5.2671 O   0  0  0  0  0  0  0  0  0  0  0  0
    7.3768    2.3548    4.1162 C   0  0  0  0  0  0  0  0  0  0  0  0
    6.6702    1.9428    2.9843 C   0  0  0  0  0  0  0  0  0  0  0  0
    4.1843   -1.2883   -0.3087 C   0  0  0  0  0  0  0  0  0  0  0  0
    0.1070   -0.0914    0.0295 H   0  0  0  0  0  0  0  0  0  0  0  0
    0.6308    0.6680   -1.4848 H   0  0  0  0  0  0  0  0  0  0  0  0
    0.6129    1.6078    0.0161 H   0  0  0  0  0  0  0  0  0  0  0  0
    1.5473   -0.3206    1.9340 H   0  0  0  0  0  0  0  0  0  0  0  0
    2.2793    1.2900    1.8326 H   0  0  0  0  0  0  0  0  0  0  0  0
    3.2993   -0.1640    1.8918 H   0  0  0  0  0  0  0  0  0  0  0  0
    2.0965   -2.0588   -0.3160 H   0  0  0  0  0  0  0  0  0  0  0  0
    1.5641   -1.0668   -2.5540 H   0  0  0  0  0  0  0  0  0  0  0  0
    3.2200   -1.6472   -2.7499 H   0  0  0  0  0  0  0  0  0  0  0  0
    2.3027    1.1794   -2.7562 H   0  0  0  0  0  0  0  0  0  0  0  0
    3.9685    0.6360   -2.9538 H   0  0  0  0  0  0  0  0  0  0  0  0
    2.5559    2.9724   -0.9688 H   0  0  0  0  0  0  0  0  0  0  0  0
    4.3086    2.8835   -1.2695 H   0  0  0  0  0  0  0  0  0  0  0  0
    3.6888    2.7393    0.3854 H   0  0  0  0  0  0  0  0  0  0  0  0
    5.3874    0.2526   -1.3506 H   0  0  0  0  0  0  0  0  0  0  0  0
    5.1996    0.3866    1.5641 H   0  0  0  0  0  0  0  0  0  0  0  0
    9.1744    1.9930    0.6807 H   0  0  0  0  0  0  0  0  0  0  0  0
   10.4841    2.6855    2.7263 H   0  0  0  0  0  0  0  0  0  0  0  0
    8.5353    5.2708    5.4919 H   0  0  0  0  0  0  0  0  0  0  0  0
   10.0639    5.3172    4.5104 H   0  0  0  0  0  0  0  0  0  0  0  0
   10.1437    5.2767    6.3143 H   0  0  0  0  0  0  0  0  0  0  0  0
    6.8864    2.4528    5.0866 H   0  0  0  0  0  0  0  0  0  0  0  0
    5.5981    1.7523    3.0756 H   0  0  0  0  0  0  0  0  0  0  0  0
    4.3390   -1.6278    0.7269 H   0  0  0  0  0  0  0  0  0  0  0  0
    4.7183   -2.0028   -0.9530 H   0  0  0  0  0  0  0  0  0  0  0  0
  2  1  1  1
  1 24  1  0
  1 25  1  0
  1 26  1  0
  2  3  1  0
  2  4  1  0
  2  7  1  0
  3 27  1  0
  3 28  1  0
  3 29  1  0
  4  5  1  0
  4 23  1  0
  4 30  1  1
  5  6  1  0
  5 31  1  0
  5 32  1  0
  6  7  1  0
  6 33  1  0
  6 34  1  0
  7  8  1  6
  7  9  1  0
  8 35  1  0
  8 36  1  0
  8 37  1  0
  9 10  1  0
  9 23  1  0
  9 38  1  6
 10 11  1  0
 10 39  1  0
 11 12  2  0
 11 13  1  0
 13 14  2  0
 13 22  1  0
 14 15  1  0
 14 40  1  0
 15 16  2  0
 15 41  1  0
 16 17  1  0
 16 21  1  0
 17 18  1  1
 17 19  2  0
 17 20  2  0
 18 42  1  0
 18 43  1  0
 18 44  1  0
 21 22  2  0
 21 45  1  0
 22 46  1  0
 23 47  1  0
 23 48  1  0
M  END

