
     RDKit          3D

 74 77  0  0  0  0  0  0  0  0999 V2000
    5.6346  -10.7102    1.2213 C   0  0  0  0  0  0  0  0  0  0  0  0
    5.6940  -10.8329   -0.2828 C   0  0  0  0  0  0  0  0  0  0  0  0
    6.7085  -11.5902   -0.8877 C   0  0  0  0  0  0  0  0  0  0  0  0
    6.7827  -11.7434   -2.2740 C   0  0  0  0  0  0  0  0  0  0  0  0
    5.8292  -11.1340   -3.0919 C   0  0  0  0  0  0  0  0  0  0  0  0
    4.8163  -10.3714   -2.5104 C   0  0  0  0  0  0  0  0  0  0  0  0
    4.7405  -10.2052   -1.1187 C   0  0  0  0  0  0  0  0  0  0  0  0
    3.6153   -9.3822   -0.5510 C   0  0  0  0  0  0  0  0  0  0  0  0
    2.0853  -10.3680   -0.3203 S   0  0  1  0  0  0  0  0  0  0  0  0
    1.6519  -10.8135   -1.6481 O   0  0  0  0  0  0  0  0  0  0  0  0
    2.3255  -11.3296    0.7635 O   0  0  0  0  0  0  0  0  0  0  0  0
    0.9957   -9.2083    0.2550 N   0  0  0  0  0  0  0  0  0  0  0  0
    0.4423   -9.3776    1.6036 C   0  0  0  0  0  0  0  0  0  0  0  0
    0.0589   -8.0057    2.1613 C   0  0  0  0  0  0  0  0  0  0  0  0
   -0.9224   -7.2429    1.2347 C   0  0  2  0  0  0  0  0  0  0  0  0
   -2.3343   -7.8345    1.3359 C   0  0  0  0  0  0  0  0  0  0  0  0
   -2.7203   -8.7480    0.6280 O   0  0  0  0  0  0  0  0  0  0  0  0
   -3.1039   -7.2590    2.3254 N   0  0  0  0  0  0  0  0  0  0  0  0
   -4.4120   -7.5794    2.7401 C   0  0  0  0  0  0  0  0  0  0  0  0
   -4.9837   -6.7825    3.7514 C   0  0  0  0  0  0  0  0  0  0  0  0
   -6.2703   -7.0435    4.2157 C   0  0  0  0  0  0  0  0  0  0  0  0
   -7.0206   -8.0879    3.6687 C   0  0  0  0  0  0  0  0  0  0  0  0
   -6.4614   -8.8859    2.6584 C   0  0  0  0  0  0  0  0  0  0  0  0
   -7.1718  -10.0877    2.0864 C   0  0  0  0  0  0  0  0  0  0  0  0
   -6.5243  -11.0605    1.7405 O   0  0  0  0  0  0  0  0  0  0  0  0
   -8.6669  -10.0898    1.9467 C   0  0  0  0  0  0  0  0  0  0  0  0
   -9.3215  -11.3297    1.8909 C   0  0  0  0  0  0  0  0  0  0  0  0
  -10.7023  -11.4063    1.7123 C   0  0  0  0  0  0  0  0  0  0  0  0
  -11.4869  -10.2497    1.5547 C   0  0  0  0  0  0  0  0  0  0  0  0
  -13.0125  -10.2948    1.3469 C   0  0  1  0  0  0  0  0  0  0  0  0
  -13.5592  -11.7338    1.3484 C   0  0  0  0  0  0  0  0  0  0  0  0
  -13.7075   -9.5120    2.4854 C   0  0  0  0  0  0  0  0  0  0  0  0
  -13.3629   -9.6455   -0.0126 C   0  0  0  0  0  0  0  0  0  0  0  0
  -10.8168   -9.0119    1.5852 C   0  0  0  0  0  0  0  0  0  0  0  0
   -9.4393   -8.9269    1.7825 C   0  0  0  0  0  0  0  0  0  0  0  0
   -5.1540   -8.6431    2.2064 C   0  0  0  0  0  0  0  0  0  0  0  0
   -0.3890   -7.2378   -0.2127 C   0  0  0  0  0  0  0  0  0  0  0  0
    0.0571   -8.6169   -0.7113 C   0  0  0  0  0  0  0  0  0  0  0  0
    6.4331  -11.2988    1.6952 H   0  0  0  0  0  0  0  0  0  0  0  0
    4.6668  -11.0678    1.6051 H   0  0  0  0  0  0  0  0  0  0  0  0
    5.7571   -9.6635    1.5513 H   0  0  0  0  0  0  0  0  0  0  0  0
    7.4539  -12.0758   -0.2517 H   0  0  0  0  0  0  0  0  0  0  0  0
    7.5843  -12.3430   -2.7132 H   0  0  0  0  0  0  0  0  0  0  0  0
    5.8711  -11.2524   -4.1773 H   0  0  0  0  0  0  0  0  0  0  0  0
    4.0584   -9.9026   -3.1427 H   0  0  0  0  0  0  0  0  0  0  0  0
    3.3189   -8.5698   -1.2294 H   0  0  0  0  0  0  0  0  0  0  0  0
    3.8319   -8.9574    0.4370 H   0  0  0  0  0  0  0  0  0  0  0  0
    1.1968   -9.8555    2.2407 H   0  0  0  0  0  0  0  0  0  0  0  0
   -0.4394  -10.0450    1.5829 H   0  0  0  0  0  0  0  0  0  0  0  0
    0.9740   -7.3993    2.2703 H   0  0  0  0  0  0  0  0  0  0  0  0
   -0.3749   -8.1261    3.1679 H   0  0  0  0  0  0  0  0  0  0  0  0
   -0.9710   -6.1966    1.5831 H   0  0  0  0  0  0  0  0  0  0  0  0
   -2.6791   -6.4857    2.8232 H   0  0  0  0  0  0  0  0  0  0  0  0
   -4.4092   -5.9550    4.1794 H   0  0  0  0  0  0  0  0  0  0  0  0
   -6.6909   -6.4263    5.0135 H   0  0  0  0  0  0  0  0  0  0  0  0
   -8.0224   -8.2956    4.0473 H   0  0  0  0  0  0  0  0  0  0  0  0
   -8.7224  -12.2373    1.9885 H   0  0  0  0  0  0  0  0  0  0  0  0
  -11.1661  -12.3925    1.6902 H   0  0  0  0  0  0  0  0  0  0  0  0
  -13.3634  -12.2476    2.3025 H   0  0  0  0  0  0  0  0  0  0  0  0
  -13.1259  -12.3398    0.5375 H   0  0  0  0  0  0  0  0  0  0  0  0
  -14.6504  -11.7171    1.2004 H   0  0  0  0  0  0  0  0  0  0  0  0
  -13.4776   -9.9550    3.4675 H   0  0  0  0  0  0  0  0  0  0  0  0
  -14.8015   -9.5309    2.3513 H   0  0  0  0  0  0  0  0  0  0  0  0
  -13.3936   -8.4574    2.5116 H   0  0  0  0  0  0  0  0  0  0  0  0
  -12.8805  -10.1838   -0.8438 H   0  0  0  0  0  0  0  0  0  0  0  0
  -13.0408   -8.5943   -0.0625 H   0  0  0  0  0  0  0  0  0  0  0  0
  -14.4525   -9.6686   -0.1786 H   0  0  0  0  0  0  0  0  0  0  0  0
  -11.3792   -8.0855    1.4479 H   0  0  0  0  0  0  0  0  0  0  0  0
   -8.9606   -7.9459    1.7814 H   0  0  0  0  0  0  0  0  0  0  0  0
   -4.7222   -9.2853    1.4429 H   0  0  0  0  0  0  0  0  0  0  0  0
    0.4744   -6.5519   -0.2491 H   0  0  0  0  0  0  0  0  0  0  0  0
   -1.1526   -6.8391   -0.8991 H   0  0  0  0  0  0  0  0  0  0  0  0
    0.5582   -8.5217   -1.6839 H   0  0  0  0  0  0  0  0  0  0  0  0
   -0.8191   -9.2698   -0.8517 H   0  0  0  0  0  0  0  0  0  0  0  0
  1  2  1  0
  1 39  1  0
  1 40  1  0
  1 41  1  0
  2  3  2  0
  2  7  1  0
  3  4  1  0
  3 42  1  0
  4  5  2  0
  4 43  1  0
  5  6  1  0
  5 44  1  0
  6  7  2  0
  6 45  1  0
  7  8  1  0
  9  8  1  6
  8 46  1  0
  8 47  1  0
  9 10  2  0
  9 11  2  0
  9 12  1  0
 12 13  1  0
 12 38  1  0
 13 14  1  0
 13 48  1  0
 13 49  1  0
 14 15  1  0
 14 50  1  0
 14 51  1  0
 15 16  1  0
 15 37  1  0
 15 52  1  1
 16 17  2  0
 16 18  1  0
 18 19  1  0
 18 53  1  0
 19 20  2  0
 19 36  1  0
 20 21  1  0
 20 54  1  0
 21 22  2  0
 21 55  1  0
 22 23  1  0
 22 56  1  0
 23 24  1  0
 23 36  2  0
 24 25  2  0
 24 26  1  0
 26 27  2  0
 26 35  1  0
 27 28  1  0
 27 57  1  0
 28 29  2  0
 28 58  1  0
 29 30  1  0
 29 34  1  0
 30 31  1  6
 30 32  1  0
 30 33  1  0
 31 59  1  0
 31 60  1  0
 31 61  1  0
 32 62  1  0
 32 63  1  0
 32 64  1  0
 33 65  1  0
 33 66  1  0
 33 67  1  0
 34 35  2  0
 34 68  1  0
 35 69  1  0
 36 70  1  0
 37 38  1  0
 37 71  1  0
 37 72  1  0
 38 73  1  0
 38 74  1  0
M  END

