
     RDKit          3D

 48 50  0  0  0  0  0  0  0  0999 V2000
    5.6180   -1.1176    8.9821 C   0  0  0  0  0  0  0  0  0  0  0  0
    6.6495   -1.4189    7.9135 C   0  0  0  0  0  0  0  0  0  0  0  0
    6.0171   -1.2660    6.6447 O   0  0  0  0  0  0  0  0  0  0  0  0
    6.7004   -1.4622    5.5123 C   0  0  0  0  0  0  0  0  0  0  0  0
    8.0526   -1.8522    5.4637 C   0  0  0  0  0  0  0  0  0  0  0  0
    8.6876   -2.0873    4.2447 C   0  0  0  0  0  0  0  0  0  0  0  0
    8.0049   -1.9529    3.0272 C   0  0  0  0  0  0  0  0  0  0  0  0
    8.6751   -2.0825    1.6815 C   0  0  0  0  0  0  0  0  0  0  0  0
    8.3433   -1.3282    0.7785 O   0  0  0  0  0  0  0  0  0  0  0  0
    9.6838   -3.0269    1.5702 N   0  0  0  0  0  0  0  0  0  0  0  0
    9.4655   -4.3805    2.1027 C   0  0  0  0  0  0  0  0  0  0  0  0
    8.8024   -5.2700    1.0411 C   0  0  0  0  0  0  0  0  0  0  0  0
    9.6051   -5.2817   -0.2647 C   0  0  0  0  0  0  0  0  0  0  0  0
    9.9594   -3.8696   -0.7647 C   0  0  2  0  0  0  0  0  0  0  0  0
   10.9096   -3.9244   -1.9725 C   0  0  0  0  0  0  0  0  0  0  0  0
   11.4126   -2.5417   -2.4007 C   0  0  0  0  0  0  0  0  0  0  0  0
   12.0694   -1.8083   -1.2252 C   0  0  0  0  0  0  0  0  0  0  0  0
   11.0925   -1.6701   -0.0514 C   0  0  0  0  0  0  0  0  0  0  0  0
   10.5782   -3.0471    0.3900 C   0  0  1  0  0  0  0  0  0  0  0  0
    6.6661   -1.5479    3.0625 C   0  0  0  0  0  0  0  0  0  0  0  0
    6.0276   -1.3051    4.2733 C   0  0  0  0  0  0  0  0  0  0  0  0
    4.6225   -0.8628    4.2159 N   0  0  0  0  0  0  0  0  0  0  0  0
    4.2391   -0.0610    5.0485 O   0  0  0  0  0  0  0  0  0  0  0  0
    3.9402   -1.3156    3.3081 O   0  0  0  0  0  0  0  0  0  0  0  0
    6.0693   -1.2196    9.9810 H   0  0  0  0  0  0  0  0  0  0  0  0
    4.7679   -1.8122    8.9090 H   0  0  0  0  0  0  0  0  0  0  0  0
    5.2347   -0.0924    8.8712 H   0  0  0  0  0  0  0  0  0  0  0  0
    7.0382   -2.4491    8.0141 H   0  0  0  0  0  0  0  0  0  0  0  0
    7.5077   -0.7263    7.9847 H   0  0  0  0  0  0  0  0  0  0  0  0
    8.6167   -1.9708    6.3880 H   0  0  0  0  0  0  0  0  0  0  0  0
    9.7434   -2.3674    4.2409 H   0  0  0  0  0  0  0  0  0  0  0  0
    8.8421   -4.3348    3.0034 H   0  0  0  0  0  0  0  0  0  0  0  0
   10.4426   -4.8015    2.3994 H   0  0  0  0  0  0  0  0  0  0  0  0
    7.7828   -4.8894    0.8539 H   0  0  0  0  0  0  0  0  0  0  0  0
    8.6906   -6.2944    1.4357 H   0  0  0  0  0  0  0  0  0  0  0  0
    9.0558   -5.8329   -1.0468 H   0  0  0  0  0  0  0  0  0  0  0  0
   10.5469   -5.8390   -0.1004 H   0  0  0  0  0  0  0  0  0  0  0  0
    9.0328   -3.3479   -1.0658 H   0  0  0  0  0  0  0  0  0  0  0  0
   10.4059   -4.4334   -2.8122 H   0  0  0  0  0  0  0  0  0  0  0  0
   11.7801   -4.5557   -1.7100 H   0  0  0  0  0  0  0  0  0  0  0  0
   10.5652   -1.9399   -2.7757 H   0  0  0  0  0  0  0  0  0  0  0  0
   12.1217   -2.6408   -3.2397 H   0  0  0  0  0  0  0  0  0  0  0  0
   12.4145   -0.8092   -1.5384 H   0  0  0  0  0  0  0  0  0  0  0  0
   12.9720   -2.3634   -0.9071 H   0  0  0  0  0  0  0  0  0  0  0  0
   10.2469   -1.0380   -0.3506 H   0  0  0  0  0  0  0  0  0  0  0  0
   11.5778   -1.1748    0.8068 H   0  0  0  0  0  0  0  0  0  0  0  0
   11.4658   -3.6126    0.7372 H   0  0  0  0  0  0  0  0  0  0  0  0
    6.1130   -1.4078    2.1339 H   0  0  0  0  0  0  0  0  0  0  0  0
  1  2  1  0
  1 25  1  0
  1 26  1  0
  1 27  1  0
  2  3  1  0
  2 28  1  0
  2 29  1  0
  3  4  1  0
  4  5  2  0
  4 21  1  0
  5  6  1  0
  5 30  1  0
  6  7  2  0
  6 31  1  0
  7  8  1  0
  7 20  1  0
  8  9  2  0
  8 10  1  0
 10 11  1  0
 10 19  1  0
 11 12  1  0
 11 32  1  0
 11 33  1  0
 12 13  1  0
 12 34  1  0
 12 35  1  0
 13 14  1  0
 13 36  1  0
 13 37  1  0
 14 15  1  0
 14 19  1  0
 14 38  1  6
 15 16  1  0
 15 39  1  0
 15 40  1  0
 16 17  1  0
 16 41  1  0
 16 42  1  0
 17 18  1  0
 17 43  1  0
 17 44  1  0
 18 19  1  0
 18 45  1  0
 18 46  1  0
 19 47  1  1
 20 21  2  0
 20 48  1  0
 21 22  1  0
 22 23  2  0
 22 24  1  0
M  CHG  2  22   1  24  -1
M  END

