
     RDKit          3D

 54 56  0  0  0  0  0  0  0  0999 V2000
    2.8696    0.6717   -3.2102 C   0  0  0  0  0  0  0  0  0  0  0  0
    4.1278    0.1148   -2.6379 C   0  0  0  0  0  0  0  0  0  0  0  0
    5.2542    0.7803   -2.6249 N   0  0  0  0  0  0  0  0  0  0  0  0
    6.1510   -0.0986   -2.0120 O   0  0  0  0  0  0  0  0  0  0  0  0
    5.4661   -1.2041   -1.7182 C   0  0  0  0  0  0  0  0  0  0  0  0
    6.1623   -2.3292   -1.0280 C   0  0  0  0  0  0  0  0  0  0  0  0
    5.2810   -3.4716   -0.9691 N   0  0  0  0  0  0  0  0  0  0  0  0
    5.6180   -4.5142   -0.1271 C   0  0  0  0  0  0  0  0  0  0  0  0
    6.6694   -4.5009    0.5016 O   0  0  0  0  0  0  0  0  0  0  0  0
    4.7233   -5.5678   -0.0686 N   0  0  0  0  0  0  0  0  0  0  0  0
    3.4793   -5.6555   -0.8248 C   0  0  0  0  0  0  0  0  0  0  0  0
    3.2384   -7.1015   -1.2986 C   0  0  0  0  0  0  0  0  0  0  0  0
    3.3459   -8.1001   -0.2380 N   0  0  0  0  0  0  0  0  0  0  0  0
    2.1916   -8.1889    0.6510 C   0  0  0  0  0  0  0  0  0  0  0  0
    0.8998   -8.5595   -0.0955 C   0  0  0  0  0  0  0  0  0  0  0  0
    0.0242   -7.7119   -0.2259 O   0  0  0  0  0  0  0  0  0  0  0  0
    0.7710   -9.8315   -0.5906 N   0  0  0  0  0  0  0  0  0  0  0  0
    1.8025  -10.8665   -0.5404 C   0  0  0  0  0  0  0  0  0  0  0  0
    1.2628  -12.1598    0.0783 C   0  0  0  0  0  0  0  0  0  0  0  0
    0.0009  -12.6295   -0.6533 C   0  0  0  0  0  0  0  0  0  0  0  0
   -1.0382  -11.5023   -0.7054 C   0  0  0  0  0  0  0  0  0  0  0  0
   -0.4798  -10.1894   -1.2892 C   0  0  2  0  0  0  0  0  0  0  0  0
   -0.2957  -10.2164   -2.8131 C   0  0  0  0  0  0  0  0  0  0  0  0
    4.6349   -7.9711    0.4418 C   0  0  0  0  0  0  0  0  0  0  0  0
    4.9003   -6.5633    0.9852 C   0  0  0  0  0  0  0  0  0  0  0  0
    4.2187   -1.1426   -2.0750 N   0  0  0  0  0  0  0  0  0  0  0  0
    3.0425    1.6836   -3.5982 H   0  0  0  0  0  0  0  0  0  0  0  0
    2.0839    0.7065   -2.4395 H   0  0  0  0  0  0  0  0  0  0  0  0
    2.5039    0.0270   -4.0245 H   0  0  0  0  0  0  0  0  0  0  0  0
    6.4799   -2.0033   -0.0194 H   0  0  0  0  0  0  0  0  0  0  0  0
    7.0984   -2.5615   -1.5661 H   0  0  0  0  0  0  0  0  0  0  0  0
    4.3149   -3.2881   -1.2188 H   0  0  0  0  0  0  0  0  0  0  0  0
    3.5406   -5.0168   -1.7165 H   0  0  0  0  0  0  0  0  0  0  0  0
    2.6185   -5.3053   -0.2210 H   0  0  0  0  0  0  0  0  0  0  0  0
    3.9929   -7.3443   -2.0675 H   0  0  0  0  0  0  0  0  0  0  0  0
    2.2471   -7.1627   -1.7716 H   0  0  0  0  0  0  0  0  0  0  0  0
    1.9417   -7.2480    1.1772 H   0  0  0  0  0  0  0  0  0  0  0  0
    2.4157   -8.9408    1.4258 H   0  0  0  0  0  0  0  0  0  0  0  0
    2.6740  -10.4909    0.0035 H   0  0  0  0  0  0  0  0  0  0  0  0
    2.1606  -11.0735   -1.5667 H   0  0  0  0  0  0  0  0  0  0  0  0
    1.0296  -11.9789    1.1431 H   0  0  0  0  0  0  0  0  0  0  0  0
    2.0478  -12.9339    0.0472 H   0  0  0  0  0  0  0  0  0  0  0  0
   -0.4264  -13.5173   -0.1587 H   0  0  0  0  0  0  0  0  0  0  0  0
    0.2691  -12.9474   -1.6768 H   0  0  0  0  0  0  0  0  0  0  0  0
   -1.3945  -11.2975    0.3192 H   0  0  0  0  0  0  0  0  0  0  0  0
   -1.9207  -11.8114   -1.2898 H   0  0  0  0  0  0  0  0  0  0  0  0
   -1.1781   -9.3757   -1.0562 H   0  0  0  0  0  0  0  0  0  0  0  0
    0.4099  -10.9929   -3.1482 H   0  0  0  0  0  0  0  0  0  0  0  0
    0.0748   -9.2432   -3.1700 H   0  0  0  0  0  0  0  0  0  0  0  0
   -1.2609  -10.4110   -3.3071 H   0  0  0  0  0  0  0  0  0  0  0  0
    5.4284   -8.2254   -0.2830 H   0  0  0  0  0  0  0  0  0  0  0  0
    4.6892   -8.7054    1.2621 H   0  0  0  0  0  0  0  0  0  0  0  0
    5.9270   -6.4705    1.3608 H   0  0  0  0  0  0  0  0  0  0  0  0
    4.2156   -6.3457    1.8299 H   0  0  0  0  0  0  0  0  0  0  0  0
  1  2  1  0
  1 27  1  0
  1 28  1  0
  1 29  1  0
  2  3  2  0
  2 26  1  0
  3  4  1  0
  4  5  1  0
  5  6  1  0
  5 26  2  0
  6  7  1  0
  6 30  1  0
  6 31  1  0
  7  8  1  0
  7 32  1  0
  8  9  2  0
  8 10  1  0
 10 11  1  0
 10 25  1  0
 11 12  1  0
 11 33  1  0
 11 34  1  0
 12 13  1  0
 12 35  1  0
 12 36  1  0
 13 14  1  0
 13 24  1  0
 14 15  1  0
 14 37  1  0
 14 38  1  0
 15 16  2  0
 15 17  1  0
 17 18  1  0
 17 22  1  0
 18 19  1  0
 18 39  1  0
 18 40  1  0
 19 20  1  0
 19 41  1  0
 19 42  1  0
 20 21  1  0
 20 43  1  0
 20 44  1  0
 21 22  1  0
 21 45  1  0
 21 46  1  0
 22 23  1  0
 22 47  1  6
 23 48  1  0
 23 49  1  0
 23 50  1  0
 24 25  1  0
 24 51  1  0
 24 52  1  0
 25 53  1  0
 25 54  1  0
M  END

