
     RDKit          3D

 42 43  0  0  0  0  0  0  0  0999 V2000
    0.8834   -0.2547   -0.4890 C   0  0  0  0  0  0  0  0  0  0  0  0
    2.3784   -0.1442   -0.3162 C   0  0  0  0  0  0  0  0  0  0  0  0
    3.1834    0.4748   -1.2758 C   0  0  0  0  0  0  0  0  0  0  0  0
    4.5737    0.5862   -1.1252 C   0  0  0  0  0  0  0  0  0  0  0  0
    5.3528    1.3027   -2.2095 C   0  0  0  0  0  0  0  0  0  0  0  0
    5.1919    0.0456    0.0276 C   0  0  0  0  0  0  0  0  0  0  0  0
    6.7191    0.1543    0.1698 C   0  0  1  0  0  0  0  0  0  0  0  0
    7.1101    0.9790    1.3267 C   0  0  0  0  0  0  0  0  0  0  0  0
    7.4320    1.6314    2.2291 N   0  0  0  0  0  0  0  0  0  0  0  0
    7.4970   -1.1886    0.1779 C   0  0  0  0  0  0  0  0  0  0  0  0
    7.2154   -2.0398   -1.0524 C   0  0  0  0  0  0  0  0  0  0  0  0
    8.0196   -3.2004   -0.9443 O   0  0  0  0  0  0  0  0  0  0  0  0
    7.9609   -4.1556   -1.8997 C   0  0  0  0  0  0  0  0  0  0  0  0
    7.1392   -4.0963   -3.0359 C   0  0  0  0  0  0  0  0  0  0  0  0
    7.1463   -5.1352   -3.9736 C   0  0  0  0  0  0  0  0  0  0  0  0
    7.9698   -6.2460   -3.7948 C   0  0  0  0  0  0  0  0  0  0  0  0
    8.7939   -6.3176   -2.6662 C   0  0  0  0  0  0  0  0  0  0  0  0
    8.7912   -5.2867   -1.7289 C   0  0  0  0  0  0  0  0  0  0  0  0
    9.8210   -5.3831   -0.3236 Cl  0  0  0  0  0  0  0  0  0  0  0  0
    4.3929   -0.5754    1.0203 C   0  0  0  0  0  0  0  0  0  0  0  0
    4.9598   -1.1689    2.2927 C   0  0  0  0  0  0  0  0  0  0  0  0
    3.0078   -0.6546    0.8246 C   0  0  0  0  0  0  0  0  0  0  0  0
    0.5465    0.2193   -1.4225 H   0  0  0  0  0  0  0  0  0  0  0  0
    0.3483    0.2265    0.3465 H   0  0  0  0  0  0  0  0  0  0  0  0
    0.5607   -1.3092   -0.5108 H   0  0  0  0  0  0  0  0  0  0  0  0
    2.7172    0.8954   -2.1714 H   0  0  0  0  0  0  0  0  0  0  0  0
    4.6763    1.6518   -3.0023 H   0  0  0  0  0  0  0  0  0  0  0  0
    6.1060    0.6557   -2.6897 H   0  0  0  0  0  0  0  0  0  0  0  0
    5.8843    2.1882   -1.8228 H   0  0  0  0  0  0  0  0  0  0  0  0
    7.0905    0.7174   -0.6982 H   0  0  0  0  0  0  0  0  0  0  0  0
    7.2620   -1.7757    1.0755 H   0  0  0  0  0  0  0  0  0  0  0  0
    8.5764   -0.9736    0.2189 H   0  0  0  0  0  0  0  0  0  0  0  0
    7.4654   -1.4876   -1.9790 H   0  0  0  0  0  0  0  0  0  0  0  0
    6.1466   -2.3140   -1.1059 H   0  0  0  0  0  0  0  0  0  0  0  0
    6.4865   -3.2376   -3.1941 H   0  0  0  0  0  0  0  0  0  0  0  0
    6.4974   -5.0663   -4.8500 H   0  0  0  0  0  0  0  0  0  0  0  0
    7.9769   -7.0575   -4.5255 H   0  0  0  0  0  0  0  0  0  0  0  0
    9.4484   -7.1752   -2.5007 H   0  0  0  0  0  0  0  0  0  0  0  0
    5.7502   -0.5490    2.7384 H   0  0  0  0  0  0  0  0  0  0  0  0
    5.3830   -2.1731    2.1206 H   0  0  0  0  0  0  0  0  0  0  0  0
    4.1665   -1.2835    3.0453 H   0  0  0  0  0  0  0  0  0  0  0  0
    2.3994   -1.1307    1.5998 H   0  0  0  0  0  0  0  0  0  0  0  0
  1  2  1  0
  1 23  1  0
  1 24  1  0
  1 25  1  0
  2  3  2  0
  2 22  1  0
  3  4  1  0
  3 26  1  0
  4  5  1  0
  4  6  2  0
  5 27  1  0
  5 28  1  0
  5 29  1  0
  6  7  1  0
  6 20  1  0
  7  8  1  0
  7 10  1  0
  7 30  1  6
  8  9  3  0
 10 11  1  0
 10 31  1  0
 10 32  1  0
 11 12  1  0
 11 33  1  0
 11 34  1  0
 12 13  1  0
 13 14  2  0
 13 18  1  0
 14 15  1  0
 14 35  1  0
 15 16  2  0
 15 36  1  0
 16 17  1  0
 16 37  1  0
 17 18  2  0
 17 38  1  0
 18 19  1  0
 20 21  1  0
 20 22  2  0
 21 39  1  0
 21 40  1  0
 21 41  1  0
 22 42  1  0
M  END

