
     RDKit          3D

 44 45  0  0  0  0  0  0  0  0999 V2000
    2.9857    1.9413    2.6853 C   0  0  0  0  0  0  0  0  0  0  0  0
    2.9177    3.3864    2.1960 C   0  0  1  0  0  0  0  0  0  0  0  0
    3.2444    4.3818    3.3483 C   0  0  0  0  0  0  0  0  0  0  0  0
    3.2615    4.0243    4.4979 O   0  0  0  0  0  0  0  0  0  0  0  0
    3.4334    5.6414    2.9786 O   0  0  0  0  0  0  0  0  0  0  0  0
    3.6942    3.7246    0.9180 C   0  0  0  0  0  0  0  0  0  0  0  0
    3.7747    4.8994    0.5398 O   0  0  0  0  0  0  0  0  0  0  0  0
    4.2446    2.7061    0.2247 N   0  0  0  0  0  0  0  0  0  0  0  0
    4.9468    2.8839   -1.0400 C   0  0  0  0  0  0  0  0  0  0  0  0
    6.4850    2.7465   -0.9719 C   0  0  1  0  0  0  0  0  0  0  0  0
    7.0618    3.0018   -2.4033 C   0  0  0  0  0  0  0  0  0  0  0  0
    6.6723    2.0311   -3.4996 C   0  0  0  0  0  0  0  0  0  0  0  0
    5.5531    2.2678   -4.3171 C   0  0  0  0  0  0  0  0  0  0  0  0
    5.1912    1.3726   -5.3279 C   0  0  0  0  0  0  0  0  0  0  0  0
    5.9480    0.2181   -5.5478 C   0  0  0  0  0  0  0  0  0  0  0  0
    7.0726   -0.0265   -4.7546 C   0  0  0  0  0  0  0  0  0  0  0  0
    7.4300    0.8725   -3.7457 C   0  0  0  0  0  0  0  0  0  0  0  0
    7.1401    3.7464    0.0127 C   0  0  0  0  0  0  0  0  0  0  0  0
    8.5197    3.1454    0.3685 C   0  0  0  0  0  0  0  0  0  0  0  0
    8.4095    1.6224    0.0679 C   0  0  0  0  0  0  0  0  0  0  0  0
    6.9519    1.3945   -0.3821 C   0  0  0  0  0  0  0  0  0  0  0  0
    2.4106    1.8441    3.6146 H   0  0  0  0  0  0  0  0  0  0  0  0
    4.0194    1.6413    2.9194 H   0  0  0  0  0  0  0  0  0  0  0  0
    2.5629    1.2409    1.9473 H   0  0  0  0  0  0  0  0  0  0  0  0
    1.8698    3.6270    1.9312 H   0  0  0  0  0  0  0  0  0  0  0  0
    3.4956    5.6712    1.9844 H   0  0  0  0  0  0  0  0  0  0  0  0
    4.1254    1.7673    0.5825 H   0  0  0  0  0  0  0  0  0  0  0  0
    4.6835    3.8872   -1.4035 H   0  0  0  0  0  0  0  0  0  0  0  0
    4.5455    2.1506   -1.7570 H   0  0  0  0  0  0  0  0  0  0  0  0
    8.1601    3.0275   -2.3306 H   0  0  0  0  0  0  0  0  0  0  0  0
    6.7559    4.0190   -2.7004 H   0  0  0  0  0  0  0  0  0  0  0  0
    4.9620    3.1760   -4.1685 H   0  0  0  0  0  0  0  0  0  0  0  0
    4.3186    1.5831   -5.9518 H   0  0  0  0  0  0  0  0  0  0  0  0
    5.6692   -0.4813   -6.3400 H   0  0  0  0  0  0  0  0  0  0  0  0
    7.6812   -0.9181   -4.9269 H   0  0  0  0  0  0  0  0  0  0  0  0
    8.3242    0.6781   -3.1470 H   0  0  0  0  0  0  0  0  0  0  0  0
    6.5189    3.8149    0.9191 H   0  0  0  0  0  0  0  0  0  0  0  0
    7.2022    4.7646   -0.4024 H   0  0  0  0  0  0  0  0  0  0  0  0
    8.7797    3.3419    1.4197 H   0  0  0  0  0  0  0  0  0  0  0  0
    9.3195    3.6036   -0.2342 H   0  0  0  0  0  0  0  0  0  0  0  0
    8.6657    1.0018    0.9401 H   0  0  0  0  0  0  0  0  0  0  0  0
    9.1121    1.3331   -0.7298 H   0  0  0  0  0  0  0  0  0  0  0  0
    6.3342    1.1647    0.5030 H   0  0  0  0  0  0  0  0  0  0  0  0
    6.8354    0.5523   -1.0814 H   0  0  0  0  0  0  0  0  0  0  0  0
  1  2  1  0
  1 22  1  0
  1 23  1  0
  1 24  1  0
  2  3  1  0
  2  6  1  0
  2 25  1  6
  3  4  2  0
  3  5  1  0
  5 26  1  0
  6  7  2  0
  6  8  1  0
  8  9  1  0
  8 27  1  0
 10  9  1  6
  9 28  1  0
  9 29  1  0
 10 11  1  0
 10 18  1  0
 10 21  1  0
 11 12  1  0
 11 30  1  0
 11 31  1  0
 12 13  2  0
 12 17  1  0
 13 14  1  0
 13 32  1  0
 14 15  2  0
 14 33  1  0
 15 16  1  0
 15 34  1  0
 16 17  2  0
 16 35  1  0
 17 36  1  0
 18 19  1  0
 18 37  1  0
 18 38  1  0
 19 20  1  0
 19 39  1  0
 19 40  1  0
 20 21  1  0
 20 41  1  0
 20 42  1  0
 21 43  1  0
 21 44  1  0
M  END

