
     RDKit          3D

 28 30  0  0  0  0  0  0  0  0999 V2000
    1.0140   -0.0629   -0.0507 C   0  0  0  0  0  0  0  0  0  0  0  0
    2.5218   -0.0072   -0.0547 C   0  0  0  0  0  0  0  0  0  0  0  0
    3.2968   -1.1724    0.0369 C   0  0  0  0  0  0  0  0  0  0  0  0
    4.6913   -1.1081    0.0433 C   0  0  0  0  0  0  0  0  0  0  0  0
    5.3378    0.1304   -0.0492 C   0  0  0  0  0  0  0  0  0  0  0  0
    4.5782    1.3245   -0.1577 C   0  0  0  0  0  0  0  0  0  0  0  0
    3.1865    1.2296   -0.1526 C   0  0  0  0  0  0  0  0  0  0  0  0
    5.2919    2.6519   -0.3688 C   0  0  0  0  0  0  0  0  0  0  0  0
    6.6495    2.7742    0.3552 C   0  0  0  0  0  0  0  0  0  0  0  0
    7.4244    1.5016    0.1774 C   0  0  0  0  0  0  0  0  0  0  0  0
    8.8039    1.1300    0.2114 C   0  0  0  0  0  0  0  0  0  0  0  0
   10.0066    2.0100    0.3865 C   0  0  0  0  0  0  0  0  0  0  0  0
    8.9468   -0.1722    0.0551 N   0  0  0  0  0  0  0  0  0  0  0  0
    7.6665   -0.6955   -0.0775 O   0  0  0  0  0  0  0  0  0  0  0  0
    6.7788    0.3064   -0.0023 C   0  0  0  0  0  0  0  0  0  0  0  0
    0.6464   -1.0966    0.0238 H   0  0  0  0  0  0  0  0  0  0  0  0
    0.5943    0.3785   -0.9703 H   0  0  0  0  0  0  0  0  0  0  0  0
    0.5945    0.5056    0.7964 H   0  0  0  0  0  0  0  0  0  0  0  0
    2.8018   -2.1444    0.1113 H   0  0  0  0  0  0  0  0  0  0  0  0
    5.2881   -2.0186    0.1289 H   0  0  0  0  0  0  0  0  0  0  0  0
    2.5929    2.1459   -0.2352 H   0  0  0  0  0  0  0  0  0  0  0  0
    4.6296    3.4835   -0.0831 H   0  0  0  0  0  0  0  0  0  0  0  0
    5.4728    2.7597   -1.4555 H   0  0  0  0  0  0  0  0  0  0  0  0
    6.4882    2.9655    1.4332 H   0  0  0  0  0  0  0  0  0  0  0  0
    7.1997    3.6457   -0.0337 H   0  0  0  0  0  0  0  0  0  0  0  0
    9.7098    3.0572    0.5368 H   0  0  0  0  0  0  0  0  0  0  0  0
   10.6618    1.9600   -0.4969 H   0  0  0  0  0  0  0  0  0  0  0  0
   10.6023    1.6912    1.2555 H   0  0  0  0  0  0  0  0  0  0  0  0
  1  2  1  0
  1 16  1  0
  1 17  1  0
  1 18  1  0
  2  3  2  0
  2  7  1  0
  3  4  1  0
  3 19  1  0
  4  5  2  0
  4 20  1  0
  5  6  1  0
  5 15  1  0
  6  7  2  0
  6  8  1  0
  7 21  1  0
  8  9  1  0
  8 22  1  0
  8 23  1  0
  9 10  1  0
  9 24  1  0
  9 25  1  0
 10 11  1  0
 10 15  2  0
 11 12  1  0
 11 13  2  0
 12 26  1  0
 12 27  1  0
 12 28  1  0
 13 14  1  0
 14 15  1  0
M  END

