
     RDKit          3D

 38 38  0  0  0  0  0  0  0  0999 V2000
    5.6734   -1.2329    0.9475 C   0  0  0  0  0  0  0  0  0  0  0  0
    4.7211   -0.0706    1.2268 C   0  0  0  0  0  0  0  0  0  0  0  0
    5.0579    1.1314    0.4851 N   0  0  0  0  0  0  0  0  0  0  0  0
    4.2404    1.6947   -0.4448 C   0  0  0  0  0  0  0  0  0  0  0  0
    3.1380    1.2676   -0.7472 O   0  0  0  0  0  0  0  0  0  0  0  0
    4.7813    2.9920   -1.0804 C   0  0  1  0  0  0  0  0  0  0  0  0
    4.1344    4.1855   -0.3656 C   0  0  0  0  0  0  0  0  0  0  0  0
    6.2459    3.0287   -1.0314 N   0  0  0  0  0  0  0  0  0  0  0  0
    6.8834    4.2068   -1.6073 C   0  0  0  0  0  0  0  0  0  0  0  0
    8.3950    4.1097   -1.5668 C   0  0  0  0  0  0  0  0  0  0  0  0
    9.1862    4.5595   -2.6329 C   0  0  0  0  0  0  0  0  0  0  0  0
   10.5785    4.4973   -2.5714 C   0  0  0  0  0  0  0  0  0  0  0  0
   11.2650    3.9911   -1.4545 C   0  0  0  0  0  0  0  0  0  0  0  0
   12.7720    3.9576   -1.4694 C   0  0  0  0  0  0  0  0  0  0  0  0
   10.4456    3.5348   -0.3994 C   0  0  0  0  0  0  0  0  0  0  0  0
   11.0237    2.9617    0.8376 N   0  0  0  0  0  0  0  0  0  0  0  0
   12.1960    3.1976    1.0879 O   0  0  0  0  0  0  0  0  0  0  0  0
   10.2910    2.2889    1.5459 O   0  0  0  0  0  0  0  0  0  0  0  0
    9.0504    3.5857   -0.4502 C   0  0  0  0  0  0  0  0  0  0  0  0
    5.3890   -2.1163    1.5414 H   0  0  0  0  0  0  0  0  0  0  0  0
    6.7131   -0.9756    1.2109 H   0  0  0  0  0  0  0  0  0  0  0  0
    5.6509   -1.5141   -0.1172 H   0  0  0  0  0  0  0  0  0  0  0  0
    4.7114    0.1562    2.3084 H   0  0  0  0  0  0  0  0  0  0  0  0
    3.6925   -0.3311    0.9387 H   0  0  0  0  0  0  0  0  0  0  0  0
    5.9405    1.6059    0.6545 H   0  0  0  0  0  0  0  0  0  0  0  0
    4.3976    2.9728   -2.1214 H   0  0  0  0  0  0  0  0  0  0  0  0
    4.5130    4.2729    0.6655 H   0  0  0  0  0  0  0  0  0  0  0  0
    3.0464    4.0324   -0.3298 H   0  0  0  0  0  0  0  0  0  0  0  0
    4.3220    5.1343   -0.8905 H   0  0  0  0  0  0  0  0  0  0  0  0
    6.6094    2.2014   -1.5064 H   0  0  0  0  0  0  0  0  0  0  0  0
    6.5729    5.0920   -1.0263 H   0  0  0  0  0  0  0  0  0  0  0  0
    6.5641    4.4043   -2.6538 H   0  0  0  0  0  0  0  0  0  0  0  0
    8.7077    4.9615   -3.5305 H   0  0  0  0  0  0  0  0  0  0  0  0
   11.1650    4.8477   -3.4244 H   0  0  0  0  0  0  0  0  0  0  0  0
   13.1415    4.2232   -2.4704 H   0  0  0  0  0  0  0  0  0  0  0  0
   13.1661    2.9686   -1.1952 H   0  0  0  0  0  0  0  0  0  0  0  0
   13.1932    4.6619   -0.7369 H   0  0  0  0  0  0  0  0  0  0  0  0
    8.4826    3.2025    0.3956 H   0  0  0  0  0  0  0  0  0  0  0  0
  1  2  1  0
  1 20  1  0
  1 21  1  0
  1 22  1  0
  2  3  1  0
  2 23  1  0
  2 24  1  0
  3  4  1  0
  3 25  1  0
  4  5  2  0
  4  6  1  0
  6  7  1  0
  6  8  1  0
  6 26  1  6
  7 27  1  0
  7 28  1  0
  7 29  1  0
  8  9  1  0
  8 30  1  0
  9 10  1  0
  9 31  1  0
  9 32  1  0
 10 11  2  0
 10 19  1  0
 11 12  1  0
 11 33  1  0
 12 13  2  0
 12 34  1  0
 13 14  1  0
 13 15  1  0
 14 35  1  0
 14 36  1  0
 14 37  1  0
 15 16  1  0
 15 19  2  0
 16 17  2  0
 16 18  1  0
 19 38  1  0
M  CHG  2  16   1  18  -1
M  END

