
     RDKit          3D

 28 28  0  0  0  0  0  0  0  0999 V2000
    1.3213   -0.9178   -0.8405 C   0  0  0  0  0  0  0  0  0  0  0  0
    2.8237   -0.9294   -0.6156 C   0  0  0  0  0  0  0  0  0  0  0  0
    3.6116   -1.1473   -1.5226 O   0  0  0  0  0  0  0  0  0  0  0  0
    3.2307   -0.6884    0.6697 N   0  0  0  0  0  0  0  0  0  0  0  0
    4.6397   -0.6804    1.0630 C   0  0  1  0  0  0  0  0  0  0  0  0
    4.9270    0.5122    1.9753 C   0  0  0  0  0  0  0  0  0  0  0  0
    5.0561   -2.0433    1.6223 C   0  0  0  0  0  0  0  0  0  0  0  0
    5.1751   -3.1235    0.7258 C   0  0  0  0  0  0  0  0  0  0  0  0
    5.5204   -4.3954    1.1762 C   0  0  0  0  0  0  0  0  0  0  0  0
    5.7518   -4.5802    2.5428 C   0  0  0  0  0  0  0  0  0  0  0  0
    6.1968   -6.2037    3.1363 S   0  0  1  0  0  0  0  0  0  0  0  0
    6.7481   -6.9924    2.0443 O   0  0  0  0  0  0  0  0  0  0  0  0
    6.8618   -6.0891    4.4265 O   0  0  0  0  0  0  0  0  0  0  0  0
    4.2473   -7.0092    3.5358 Cl  0  0  0  0  0  0  0  0  0  0  0  0
    5.6503   -3.5328    3.4578 C   0  0  0  0  0  0  0  0  0  0  0  0
    5.3041   -2.2643    2.9855 C   0  0  0  0  0  0  0  0  0  0  0  0
    1.1056   -0.2948   -1.7204 H   0  0  0  0  0  0  0  0  0  0  0  0
    0.7441   -0.5479    0.0195 H   0  0  0  0  0  0  0  0  0  0  0  0
    0.9919   -1.9412   -1.0795 H   0  0  0  0  0  0  0  0  0  0  0  0
    2.5328   -0.6014    1.3997 H   0  0  0  0  0  0  0  0  0  0  0  0
    5.1861   -0.5459    0.1173 H   0  0  0  0  0  0  0  0  0  0  0  0
    4.3250    0.4828    2.8989 H   0  0  0  0  0  0  0  0  0  0  0  0
    4.6865    1.4479    1.4498 H   0  0  0  0  0  0  0  0  0  0  0  0
    5.9878    0.5425    2.2660 H   0  0  0  0  0  0  0  0  0  0  0  0
    4.9918   -2.9515   -0.3378 H   0  0  0  0  0  0  0  0  0  0  0  0
    5.6228   -5.2328    0.4840 H   0  0  0  0  0  0  0  0  0  0  0  0
    5.8490   -3.7077    4.5164 H   0  0  0  0  0  0  0  0  0  0  0  0
    5.2359   -1.4431    3.7009 H   0  0  0  0  0  0  0  0  0  0  0  0
  1  2  1  0
  1 17  1  0
  1 18  1  0
  1 19  1  0
  2  3  2  0
  2  4  1  0
  4  5  1  0
  4 20  1  0
  5  6  1  0
  5  7  1  0
  5 21  1  6
  6 22  1  0
  6 23  1  0
  6 24  1  0
  7  8  2  0
  7 16  1  0
  8  9  1  0
  8 25  1  0
  9 10  2  0
  9 26  1  0
 10 11  1  0
 10 15  1  0
 11 12  2  0
 11 13  2  0
 11 14  1  1
 15 16  2  0
 15 27  1  0
 16 28  1  0
M  END

