
     RDKit          3D

 45 46  0  0  0  0  0  0  0  0999 V2000
    1.6479    1.0325    0.6888 C   0  0  0  0  0  0  0  0  0  0  0  0
    2.7040    0.5959   -0.3281 C   0  0  0  0  0  0  0  0  0  0  0  0
    3.0299   -0.8358   -0.2398 N   0  0  0  0  0  0  0  0  0  0  0  0
    2.0946   -1.6835   -0.9665 C   0  0  0  0  0  0  0  0  0  0  0  0
    2.1534   -1.7120   -2.5072 C   0  0  1  0  0  0  0  0  0  0  0  0
    1.3871   -2.9069   -3.1349 C   0  0  0  0  0  0  0  0  0  0  0  0
    0.9974   -2.4153   -4.5515 C   0  0  0  0  0  0  0  0  0  0  0  0
    1.3913   -0.9073   -4.5496 C   0  0  0  0  0  0  0  0  0  0  0  0
    1.5916   -0.5168   -3.1525 N   0  0  0  0  0  0  0  0  0  0  0  0
    4.4664   -1.1456   -0.3493 C   0  0  1  0  0  0  0  0  0  0  0  0
    5.2481   -0.5909    0.8644 C   0  0  0  0  0  0  0  0  0  0  0  0
    4.9571   -1.3756    2.1476 C   0  0  2  0  0  0  0  0  0  0  0  0
    5.7667   -0.8926    3.3410 C   0  0  0  0  0  0  0  0  0  0  0  0
    5.2599   -2.7548    1.9666 O   0  0  0  0  0  0  0  0  0  0  0  0
    4.5267   -3.3763    0.9216 C   0  0  2  0  0  0  0  0  0  0  0  0
    4.9440   -4.8391    0.8879 C   0  0  0  0  0  0  0  0  0  0  0  0
    4.7772   -2.6550   -0.4098 C   0  0  0  0  0  0  0  0  0  0  0  0
    1.4205    2.1058    0.5780 H   0  0  0  0  0  0  0  0  0  0  0  0
    1.9924    0.8547    1.7200 H   0  0  0  0  0  0  0  0  0  0  0  0
    0.7013    0.4826    0.5587 H   0  0  0  0  0  0  0  0  0  0  0  0
    3.6193    1.1785   -0.1513 H   0  0  0  0  0  0  0  0  0  0  0  0
    2.3812    0.8590   -1.3519 H   0  0  0  0  0  0  0  0  0  0  0  0
    1.0704   -1.3855   -0.6748 H   0  0  0  0  0  0  0  0  0  0  0  0
    2.1931   -2.7202   -0.6100 H   0  0  0  0  0  0  0  0  0  0  0  0
    3.2111   -1.7775   -2.8238 H   0  0  0  0  0  0  0  0  0  0  0  0
    0.4861   -3.1187   -2.5326 H   0  0  0  0  0  0  0  0  0  0  0  0
    1.9869   -3.8307   -3.1492 H   0  0  0  0  0  0  0  0  0  0  0  0
   -0.0800   -2.5477   -4.7373 H   0  0  0  0  0  0  0  0  0  0  0  0
    1.5268   -2.9679   -5.3433 H   0  0  0  0  0  0  0  0  0  0  0  0
    0.6459   -0.2570   -5.0320 H   0  0  0  0  0  0  0  0  0  0  0  0
    2.3411   -0.7666   -5.0941 H   0  0  0  0  0  0  0  0  0  0  0  0
    0.6813   -0.3220   -2.7290 H   0  0  0  0  0  0  0  0  0  0  0  0
    4.8932   -0.6839   -1.2682 H   0  0  0  0  0  0  0  0  0  0  0  0
    5.0299    0.4748    1.0287 H   0  0  0  0  0  0  0  0  0  0  0  0
    6.3279   -0.6614    0.6465 H   0  0  0  0  0  0  0  0  0  0  0  0
    3.8753   -1.2757    2.3705 H   0  0  0  0  0  0  0  0  0  0  0  0
    6.8457   -0.9826    3.1365 H   0  0  0  0  0  0  0  0  0  0  0  0
    5.5368   -1.5015    4.2286 H   0  0  0  0  0  0  0  0  0  0  0  0
    5.5403    0.1605    3.5695 H   0  0  0  0  0  0  0  0  0  0  0  0
    3.4447   -3.3163    1.1634 H   0  0  0  0  0  0  0  0  0  0  0  0
    6.0161   -4.9272    0.6494 H   0  0  0  0  0  0  0  0  0  0  0  0
    4.3695   -5.3961    0.1311 H   0  0  0  0  0  0  0  0  0  0  0  0
    4.7744   -5.3051    1.8703 H   0  0  0  0  0  0  0  0  0  0  0  0
    4.2344   -3.1593   -1.2226 H   0  0  0  0  0  0  0  0  0  0  0  0
    5.8495   -2.7571   -0.6480 H   0  0  0  0  0  0  0  0  0  0  0  0
  1  2  1  0
  1 18  1  0
  1 19  1  0
  1 20  1  0
  2  3  1  0
  2 21  1  0
  2 22  1  0
  3  4  1  0
  3 10  1  0
  4  5  1  0
  4 23  1  0
  4 24  1  0
  5  6  1  0
  5  9  1  0
  5 25  1  1
  6  7  1  0
  6 26  1  0
  6 27  1  0
  7  8  1  0
  7 28  1  0
  7 29  1  0
  8  9  1  0
  8 30  1  0
  8 31  1  0
  9 32  1  0
 10 11  1  0
 10 17  1  0
 10 33  1  6
 11 12  1  0
 11 34  1  0
 11 35  1  0
 12 13  1  0
 12 14  1  0
 12 36  1  1
 13 37  1  0
 13 38  1  0
 13 39  1  0
 14 15  1  0
 15 16  1  0
 15 17  1  0
 15 40  1  1
 16 41  1  0
 16 42  1  0
 16 43  1  0
 17 44  1  0
 17 45  1  0
M  END

