
     RDKit          3D

 49 52  0  0  0  0  0  0  0  0999 V2000
    6.6752   -2.0055    4.5501 C   0  0  0  0  0  0  0  0  0  0  0  0
    6.8550   -2.4716    3.1306 C   0  0  0  0  0  0  0  0  0  0  0  0
    5.8252   -2.3577    2.3462 N   0  0  0  0  0  0  0  0  0  0  0  0
    5.9029   -2.7554    1.0575 N   0  0  0  0  0  0  0  0  0  0  0  0
    4.6790   -2.5527    0.2732 C   0  0  0  0  0  0  0  0  0  0  0  0
    3.7843   -3.8067    0.1632 C   0  0  0  0  0  0  0  0  0  0  0  0
    2.6935   -3.8501    0.7052 O   0  0  0  0  0  0  0  0  0  0  0  0
    4.3155   -4.8020   -0.5972 N   0  0  0  0  0  0  0  0  0  0  0  0
    3.6598   -6.0887   -0.7903 C   0  0  1  0  0  0  0  0  0  0  0  0
    3.5444   -6.4062   -2.2902 C   0  0  0  0  0  0  0  0  0  0  0  0
    4.3449   -7.2212   -0.0279 C   0  0  0  0  0  0  0  0  0  0  0  0
    5.7441   -7.3176    0.0582 C   0  0  0  0  0  0  0  0  0  0  0  0
    6.3440   -8.3854    0.7263 C   0  0  0  0  0  0  0  0  0  0  0  0
    5.5635   -9.3844    1.3145 C   0  0  0  0  0  0  0  0  0  0  0  0
    4.1603   -9.3082    1.2173 C   0  0  0  0  0  0  0  0  0  0  0  0
    3.5684   -8.2275    0.5573 C   0  0  0  0  0  0  0  0  0  0  0  0
    3.3520  -10.2666    1.7657 O   0  0  0  0  0  0  0  0  0  0  0  0
    4.0194  -11.4679    2.1159 C   0  0  0  0  0  0  0  0  0  0  0  0
    5.3273  -11.1578    2.8253 C   0  0  0  0  0  0  0  0  0  0  0  0
    6.1827  -10.4116    1.9753 O   0  0  0  0  0  0  0  0  0  0  0  0
    7.0116   -3.3255    0.4489 C   0  0  0  0  0  0  0  0  0  0  0  0
    6.9706   -3.7083   -0.7229 O   0  0  0  0  0  0  0  0  0  0  0  0
    8.1959   -3.4300    1.3111 C   0  0  0  0  0  0  0  0  0  0  0  0
    9.3922   -3.9530    0.7884 C   0  0  0  0  0  0  0  0  0  0  0  0
   10.5118   -4.0616    1.6020 C   0  0  0  0  0  0  0  0  0  0  0  0
   10.4467   -3.6517    2.9472 C   0  0  0  0  0  0  0  0  0  0  0  0
    9.2699   -3.1339    3.4727 C   0  0  0  0  0  0  0  0  0  0  0  0
    8.1210   -3.0118    2.6598 C   0  0  0  0  0  0  0  0  0  0  0  0
    5.6500   -1.6372    4.6823 H   0  0  0  0  0  0  0  0  0  0  0  0
    7.3784   -1.1939    4.8004 H   0  0  0  0  0  0  0  0  0  0  0  0
    6.8505   -2.8250    5.2666 H   0  0  0  0  0  0  0  0  0  0  0  0
    4.9735   -2.2143   -0.7311 H   0  0  0  0  0  0  0  0  0  0  0  0
    4.0965   -1.7822    0.7865 H   0  0  0  0  0  0  0  0  0  0  0  0
    5.2416   -4.6362   -0.9929 H   0  0  0  0  0  0  0  0  0  0  0  0
    2.6501   -5.9629   -0.3738 H   0  0  0  0  0  0  0  0  0  0  0  0
    4.5419   -6.4986   -2.7508 H   0  0  0  0  0  0  0  0  0  0  0  0
    2.9920   -5.6096   -2.8128 H   0  0  0  0  0  0  0  0  0  0  0  0
    3.0171   -7.3598   -2.4451 H   0  0  0  0  0  0  0  0  0  0  0  0
    6.3790   -6.5455   -0.3826 H   0  0  0  0  0  0  0  0  0  0  0  0
    7.4299   -8.4632    0.8148 H   0  0  0  0  0  0  0  0  0  0  0  0
    2.4767   -8.1955    0.5146 H   0  0  0  0  0  0  0  0  0  0  0  0
    4.2210  -12.0687    1.2085 H   0  0  0  0  0  0  0  0  0  0  0  0
    3.3389  -12.0356    2.7678 H   0  0  0  0  0  0  0  0  0  0  0  0
    5.8629  -12.0812    3.0912 H   0  0  0  0  0  0  0  0  0  0  0  0
    5.1226  -10.5893    3.7526 H   0  0  0  0  0  0  0  0  0  0  0  0
    9.4073   -4.2633   -0.2578 H   0  0  0  0  0  0  0  0  0  0  0  0
   11.4442   -4.4662    1.2010 H   0  0  0  0  0  0  0  0  0  0  0  0
   11.3300   -3.7417    3.5846 H   0  0  0  0  0  0  0  0  0  0  0  0
    9.2339   -2.8200    4.5171 H   0  0  0  0  0  0  0  0  0  0  0  0
  1  2  1  0
  1 29  1  0
  1 30  1  0
  1 31  1  0
  2  3  2  0
  2 28  1  0
  3  4  1  0
  4  5  1  0
  4 21  1  0
  5  6  1  0
  5 32  1  0
  5 33  1  0
  6  7  2  0
  6  8  1  0
  8  9  1  0
  8 34  1  0
  9 10  1  0
  9 11  1  0
  9 35  1  1
 10 36  1  0
 10 37  1  0
 10 38  1  0
 11 12  2  0
 11 16  1  0
 12 13  1  0
 12 39  1  0
 13 14  2  0
 13 40  1  0
 14 15  1  0
 14 20  1  0
 15 16  2  0
 15 17  1  0
 16 41  1  0
 17 18  1  0
 18 19  1  0
 18 42  1  0
 18 43  1  0
 19 20  1  0
 19 44  1  0
 19 45  1  0
 21 22  2  0
 21 23  1  0
 23 24  1  0
 23 28  2  0
 24 25  2  0
 24 46  1  0
 25 26  1  0
 25 47  1  0
 26 27  2  0
 26 48  1  0
 27 28  1  0
 27 49  1  0
M  END

