
     RDKit          3D

 41 43  0  0  0  0  0  0  0  0999 V2000
    1.2576   -0.6219   -0.3706 O   0  0  0  0  0  0  0  0  0  0  0  0
    2.3717   -0.3232    0.0348 C   0  0  0  0  0  0  0  0  0  0  0  0
    2.9832    1.0332   -0.3267 C   0  0  0  0  0  0  0  0  0  0  0  0
    2.0306    1.8692   -1.1958 C   0  0  0  0  0  0  0  0  0  0  0  0
    2.5884    3.2138   -1.5680 C   0  0  0  0  0  0  0  0  0  0  0  0
    2.2782    4.4415   -1.0359 C   0  0  0  0  0  0  0  0  0  0  0  0
    3.0398    5.5032   -1.6176 C   0  0  0  0  0  0  0  0  0  0  0  0
    2.8320    7.3156   -1.0989 Br  0  0  0  0  0  0  0  0  0  0  0  0
    3.9210    5.0907   -2.5807 C   0  0  0  0  0  0  0  0  0  0  0  0
    3.8249    3.3738   -2.7934 S   0  0  0  0  0  0  0  0  0  0  0  0
    3.1154   -1.1858    0.8105 N   0  0  0  0  0  0  0  0  0  0  0  0
    2.5618   -2.5055    1.1168 C   0  0  0  0  0  0  0  0  0  0  0  0
    3.5229   -3.6000    0.6597 C   0  0  0  0  0  0  0  0  0  0  0  0
    4.8274   -3.3779    1.2716 N   0  0  0  0  0  0  0  0  0  0  0  0
    5.3926   -2.0856    0.9143 C   0  0  0  0  0  0  0  0  0  0  0  0
    4.4675   -0.9244    1.3385 C   0  0  2  0  0  0  0  0  0  0  0  0
    4.4660   -0.6085    2.8391 C   0  0  0  0  0  0  0  0  0  0  0  0
    4.5276   -1.6027    3.8321 C   0  0  0  0  0  0  0  0  0  0  0  0
    4.5078   -1.2543    5.1866 C   0  0  0  0  0  0  0  0  0  0  0  0
    4.4284    0.0819    5.5853 C   0  0  0  0  0  0  0  0  0  0  0  0
    4.3780    1.0586    4.5946 C   0  0  0  0  0  0  0  0  0  0  0  0
    4.3168    2.3512    4.9500 F   0  0  0  0  0  0  0  0  0  0  0  0
    4.3983    0.7358    3.2405 C   0  0  0  0  0  0  0  0  0  0  0  0
    3.9393    0.8831   -0.8569 H   0  0  0  0  0  0  0  0  0  0  0  0
    3.2310    1.5899    0.5909 H   0  0  0  0  0  0  0  0  0  0  0  0
    1.0847    2.0162   -0.6542 H   0  0  0  0  0  0  0  0  0  0  0  0
    1.7678    1.2918   -2.0956 H   0  0  0  0  0  0  0  0  0  0  0  0
    1.5289    4.5913   -0.2579 H   0  0  0  0  0  0  0  0  0  0  0  0
    4.6028    5.6951   -3.1751 H   0  0  0  0  0  0  0  0  0  0  0  0
    1.5958   -2.5801    0.6038 H   0  0  0  0  0  0  0  0  0  0  0  0
    2.3871   -2.5923    2.2030 H   0  0  0  0  0  0  0  0  0  0  0  0
    3.5644   -3.5949   -0.4530 H   0  0  0  0  0  0  0  0  0  0  0  0
    3.1373   -4.5832    0.9737 H   0  0  0  0  0  0  0  0  0  0  0  0
    5.4762   -4.1278    1.0431 H   0  0  0  0  0  0  0  0  0  0  0  0
    5.5523   -1.9834   -0.1834 H   0  0  0  0  0  0  0  0  0  0  0  0
    6.3717   -1.9659    1.4041 H   0  0  0  0  0  0  0  0  0  0  0  0
    4.8522   -0.0320    0.8326 H   0  0  0  0  0  0  0  0  0  0  0  0
    4.6042   -2.6472    3.5293 H   0  0  0  0  0  0  0  0  0  0  0  0
    4.5574   -2.0387    5.9461 H   0  0  0  0  0  0  0  0  0  0  0  0
    4.4120    0.3767    6.6362 H   0  0  0  0  0  0  0  0  0  0  0  0
    4.3706    1.5525    2.5162 H   0  0  0  0  0  0  0  0  0  0  0  0
  1  2  2  0
  2  3  1  0
  2 11  1  0
  3  4  1  0
  3 24  1  0
  3 25  1  0
  4  5  1  0
  4 26  1  0
  4 27  1  0
  5  6  2  0
  5 10  1  0
  6  7  1  0
  6 28  1  0
  7  8  1  0
  7  9  2  0
  9 10  1  0
  9 29  1  0
 11 12  1  0
 11 16  1  0
 12 13  1  0
 12 30  1  0
 12 31  1  0
 13 14  1  0
 13 32  1  0
 13 33  1  0
 14 15  1  0
 14 34  1  0
 15 16  1  0
 15 35  1  0
 15 36  1  0
 16 17  1  0
 16 37  1  6
 17 18  2  0
 17 23  1  0
 18 19  1  0
 18 38  1  0
 19 20  2  0
 19 39  1  0
 20 21  1  0
 20 40  1  0
 21 22  1  0
 21 23  2  0
 23 41  1  0
M  END

