
     RDKit          3D

 62 64  0  0  0  0  0  0  0  0999 V2000
    3.5057   -0.0947    1.5863 C   0  0  0  0  0  0  0  0  0  0  0  0
    3.9632   -0.1046    0.2519 O   0  0  0  0  0  0  0  0  0  0  0  0
    3.8635    1.0281   -0.4942 C   0  0  0  0  0  0  0  0  0  0  0  0
    3.3533    2.2440   -0.0240 C   0  0  0  0  0  0  0  0  0  0  0  0
    3.3033    3.3811   -0.8492 C   0  0  0  0  0  0  0  0  0  0  0  0
    2.7968    4.6962   -0.2880 C   0  0  0  0  0  0  0  0  0  0  0  0
    2.1469    5.5217   -1.2934 N   0  0  0  0  0  0  0  0  0  0  0  0
    1.7163    6.8370   -0.8466 C   0  0  0  0  0  0  0  0  0  0  0  0
    2.8338    7.8682   -0.9842 C   0  0  0  0  0  0  0  0  0  0  0  0
    2.3374    9.1006   -0.4984 O   0  0  0  0  0  0  0  0  0  0  0  0
    3.1304   10.2037   -0.5096 C   0  0  0  0  0  0  0  0  0  0  0  0
    4.4482   10.2266   -0.9919 C   0  0  0  0  0  0  0  0  0  0  0  0
    5.1769   11.4225   -0.9553 C   0  0  0  0  0  0  0  0  0  0  0  0
    4.6125   12.5925   -0.4469 C   0  0  0  0  0  0  0  0  0  0  0  0
    3.2957   12.5625    0.0324 C   0  0  0  0  0  0  0  0  0  0  0  0
    2.5584   11.3818    0.0035 C   0  0  0  0  0  0  0  0  0  0  0  0
    3.7632    3.2847   -2.1660 C   0  0  0  0  0  0  0  0  0  0  0  0
    4.2583    2.0683   -2.6479 C   0  0  0  0  0  0  0  0  0  0  0  0
    4.3171    0.9394   -1.8330 C   0  0  0  0  0  0  0  0  0  0  0  0
    4.8563   -0.2202   -2.3200 O   0  0  0  0  0  0  0  0  0  0  0  0
    3.9694   -1.3271   -2.5455 C   0  0  0  0  0  0  0  0  0  0  0  0
    4.8135   -2.4319   -3.1675 C   0  0  1  0  0  0  0  0  0  0  0  0
    5.4583   -1.9707   -4.3378 O   0  0  0  0  0  0  0  0  0  0  0  0
    5.8391   -3.0098   -2.1713 C   0  0  0  0  0  0  0  0  0  0  0  0
    5.1999   -3.6948   -1.0529 N   0  0  0  0  0  0  0  0  0  0  0  0
    5.0552   -5.1420   -1.1993 C   0  0  0  0  0  0  0  0  0  0  0  0
    6.3209   -5.8931   -0.7718 C   0  0  0  0  0  0  0  0  0  0  0  0
    6.7010   -5.5365    0.5455 O   0  0  0  0  0  0  0  0  0  0  0  0
    6.9235   -4.1434    0.6801 C   0  0  0  0  0  0  0  0  0  0  0  0
    5.6707   -3.3563    0.2878 C   0  0  0  0  0  0  0  0  0  0  0  0
    3.6777   -1.1045    1.9818 H   0  0  0  0  0  0  0  0  0  0  0  0
    2.4272    0.1364    1.6487 H   0  0  0  0  0  0  0  0  0  0  0  0
    4.0616    0.6324    2.2050 H   0  0  0  0  0  0  0  0  0  0  0  0
    2.9909    2.3219    1.0022 H   0  0  0  0  0  0  0  0  0  0  0  0
    3.6559    5.2625    0.1176 H   0  0  0  0  0  0  0  0  0  0  0  0
    2.1430    4.4893    0.5892 H   0  0  0  0  0  0  0  0  0  0  0  0
    1.3717    5.0108   -1.7091 H   0  0  0  0  0  0  0  0  0  0  0  0
    1.3554    6.8474    0.2041 H   0  0  0  0  0  0  0  0  0  0  0  0
    0.8713    7.1693   -1.4699 H   0  0  0  0  0  0  0  0  0  0  0  0
    3.1340    7.9483   -2.0448 H   0  0  0  0  0  0  0  0  0  0  0  0
    3.7265    7.5589   -0.4083 H   0  0  0  0  0  0  0  0  0  0  0  0
    4.9128    9.3272   -1.3966 H   0  0  0  0  0  0  0  0  0  0  0  0
    6.2027   11.4297   -1.3337 H   0  0  0  0  0  0  0  0  0  0  0  0
    5.1890   13.5200   -0.4231 H   0  0  0  0  0  0  0  0  0  0  0  0
    2.8384   13.4709    0.4338 H   0  0  0  0  0  0  0  0  0  0  0  0
    1.5316   11.3399    0.3728 H   0  0  0  0  0  0  0  0  0  0  0  0
    3.7207    4.1636   -2.8109 H   0  0  0  0  0  0  0  0  0  0  0  0
    4.6180    1.9747   -3.6753 H   0  0  0  0  0  0  0  0  0  0  0  0
    3.1723   -1.0152   -3.2435 H   0  0  0  0  0  0  0  0  0  0  0  0
    3.5243   -1.6721   -1.6004 H   0  0  0  0  0  0  0  0  0  0  0  0
    4.1292   -3.2416   -3.4754 H   0  0  0  0  0  0  0  0  0  0  0  0
    5.8411   -1.1107   -4.1078 H   0  0  0  0  0  0  0  0  0  0  0  0
    6.4485   -2.1731   -1.7944 H   0  0  0  0  0  0  0  0  0  0  0  0
    6.5244   -3.6582   -2.7499 H   0  0  0  0  0  0  0  0  0  0  0  0
    4.7931   -5.3885   -2.2410 H   0  0  0  0  0  0  0  0  0  0  0  0
    4.2164   -5.4815   -0.5640 H   0  0  0  0  0  0  0  0  0  0  0  0
    7.1497   -5.6768   -1.4792 H   0  0  0  0  0  0  0  0  0  0  0  0
    6.1548   -6.9823   -0.7728 H   0  0  0  0  0  0  0  0  0  0  0  0
    7.7839   -3.8299    0.0504 H   0  0  0  0  0  0  0  0  0  0  0  0
    7.1941   -3.9642    1.7333 H   0  0  0  0  0  0  0  0  0  0  0  0
    5.8398   -2.2703    0.3527 H   0  0  0  0  0  0  0  0  0  0  0  0
    4.8707   -3.6072    1.0101 H   0  0  0  0  0  0  0  0  0  0  0  0
  1  2  1  0
  1 31  1  0
  1 32  1  0
  1 33  1  0
  2  3  1  0
  3  4  2  0
  3 19  1  0
  4  5  1  0
  4 34  1  0
  5  6  1  0
  5 17  2  0
  6  7  1  0
  6 35  1  0
  6 36  1  0
  7  8  1  0
  7 37  1  0
  8  9  1  0
  8 38  1  0
  8 39  1  0
  9 10  1  0
  9 40  1  0
  9 41  1  0
 10 11  1  0
 11 12  2  0
 11 16  1  0
 12 13  1  0
 12 42  1  0
 13 14  2  0
 13 43  1  0
 14 15  1  0
 14 44  1  0
 15 16  2  0
 15 45  1  0
 16 46  1  0
 17 18  1  0
 17 47  1  0
 18 19  2  0
 18 48  1  0
 19 20  1  0
 20 21  1  0
 21 22  1  0
 21 49  1  0
 21 50  1  0
 22 23  1  0
 22 24  1  0
 22 51  1  6
 23 52  1  0
 24 25  1  0
 24 53  1  0
 24 54  1  0
 25 26  1  0
 25 30  1  0
 26 27  1  0
 26 55  1  0
 26 56  1  0
 27 28  1  0
 27 57  1  0
 27 58  1  0
 28 29  1  0
 29 30  1  0
 29 59  1  0
 29 60  1  0
 30 61  1  0
 30 62  1  0
M  END

