
     RDKit          3D

 42 44  0  0  0  0  0  0  0  0999 V2000
    2.7762   -4.4835    3.2101 C   0  0  0  0  0  0  0  0  0  0  0  0
    3.0463   -3.7595    1.9253 C   0  0  0  0  0  0  0  0  0  0  0  0
    2.1741   -3.6101    0.8772 C   0  0  0  0  0  0  0  0  0  0  0  0
    2.9103   -2.6997   -0.4011 S   0  0  0  0  0  0  0  0  0  0  0  0
    4.3592   -2.5729    0.5694 C   0  0  0  0  0  0  0  0  0  0  0  0
    5.6117   -1.8731    0.0792 C   0  0  1  0  0  0  0  0  0  0  0  0
    6.5022   -1.7091    1.2152 N   0  0  0  0  0  0  0  0  0  0  0  0
    7.2864   -0.6021    1.3679 C   0  0  0  0  0  0  0  0  0  0  0  0
    7.3752    0.2746    0.5152 O   0  0  0  0  0  0  0  0  0  0  0  0
    8.0356   -0.5529    2.6595 C   0  0  0  0  0  0  0  0  0  0  0  0
    8.8510    0.4842    2.9250 C   0  0  0  0  0  0  0  0  0  0  0  0
    9.6593    0.7089    4.1267 C   0  0  0  0  0  0  0  0  0  0  0  0
    9.6937   -0.1848    5.2197 C   0  0  0  0  0  0  0  0  0  0  0  0
   10.4798    0.0772    6.3341 C   0  0  0  0  0  0  0  0  0  0  0  0
   11.2492    1.2517    6.4101 C   0  0  0  0  0  0  0  0  0  0  0  0
   12.0817    1.4661    7.6429 C   0  0  0  0  0  0  0  0  0  0  0  0
   12.3578    0.5825    8.4110 O   0  0  0  0  0  0  0  0  0  0  0  0
   12.5178    2.7271    7.8669 O   0  0  0  0  0  0  0  0  0  0  0  0
   11.2338    2.1399    5.3239 C   0  0  0  0  0  0  0  0  0  0  0  0
   10.4511    1.8714    4.2020 C   0  0  0  0  0  0  0  0  0  0  0  0
    6.2505   -2.6312   -1.0835 C   0  0  1  0  0  0  0  0  0  0  0  0
    5.8456   -2.3096   -2.5016 C   0  0  0  0  0  0  0  0  0  0  0  0
    7.2127   -1.9216   -1.9991 C   0  0  0  0  0  0  0  0  0  0  0  0
    4.2749   -3.1643    1.7251 N   0  0  0  0  0  0  0  0  0  0  0  0
    1.7633   -4.9094    3.2261 H   0  0  0  0  0  0  0  0  0  0  0  0
    2.8817   -3.8017    4.0698 H   0  0  0  0  0  0  0  0  0  0  0  0
    3.5011   -5.3011    3.3553 H   0  0  0  0  0  0  0  0  0  0  0  0
    1.1541   -3.9803    0.7913 H   0  0  0  0  0  0  0  0  0  0  0  0
    5.3563   -0.8623   -0.2820 H   0  0  0  0  0  0  0  0  0  0  0  0
    6.3311   -2.3341    1.9983 H   0  0  0  0  0  0  0  0  0  0  0  0
    7.8988   -1.3781    3.3652 H   0  0  0  0  0  0  0  0  0  0  0  0
    8.9127    1.2504    2.1442 H   0  0  0  0  0  0  0  0  0  0  0  0
    9.0987   -1.0999    5.1934 H   0  0  0  0  0  0  0  0  0  0  0  0
   10.5169   -0.6193    7.1737 H   0  0  0  0  0  0  0  0  0  0  0  0
   12.1043    3.3448    7.2481 H   0  0  0  0  0  0  0  0  0  0  0  0
   11.8567    3.0395    5.3233 H   0  0  0  0  0  0  0  0  0  0  0  0
   10.4543    2.5686    3.3604 H   0  0  0  0  0  0  0  0  0  0  0  0
    6.4609   -3.6820   -0.8544 H   0  0  0  0  0  0  0  0  0  0  0  0
    5.1155   -1.5095   -2.6598 H   0  0  0  0  0  0  0  0  0  0  0  0
    5.7563   -3.1365   -3.2113 H   0  0  0  0  0  0  0  0  0  0  0  0
    7.4089   -0.8674   -1.7892 H   0  0  0  0  0  0  0  0  0  0  0  0
    8.0774   -2.4845   -2.3614 H   0  0  0  0  0  0  0  0  0  0  0  0
  1  2  1  0
  1 25  1  0
  1 26  1  0
  1 27  1  0
  2  3  2  0
  2 24  1  0
  3  4  1  0
  3 28  1  0
  4  5  1  0
  5  6  1  0
  5 24  2  0
  6  7  1  0
  6 21  1  0
  6 29  1  6
  7  8  1  0
  7 30  1  0
  8  9  2  0
  8 10  1  0
 10 11  2  0
 10 31  1  0
 11 12  1  0
 11 32  1  0
 12 13  2  0
 12 20  1  0
 13 14  1  0
 13 33  1  0
 14 15  2  0
 14 34  1  0
 15 16  1  0
 15 19  1  0
 16 17  2  0
 16 18  1  0
 18 35  1  0
 19 20  2  0
 19 36  1  0
 20 37  1  0
 21 22  1  0
 21 23  1  0
 21 38  1  1
 22 23  1  0
 22 39  1  0
 22 40  1  0
 23 41  1  0
 23 42  1  0
M  END

