
     RDKit          3D

 49 52  0  0  0  0  0  0  0  0999 V2000
    2.1120    0.8093    0.8022 C   0  0  0  0  0  0  0  0  0  0  0  0
    2.7288   -0.3927    1.4773 C   0  0  0  0  0  0  0  0  0  0  0  0
    2.6586   -0.5639    2.8635 C   0  0  0  0  0  0  0  0  0  0  0  0
    3.2373   -1.6896    3.4666 C   0  0  0  0  0  0  0  0  0  0  0  0
    3.8872   -2.6508    2.7015 C   0  0  0  0  0  0  0  0  0  0  0  0
    3.9639   -2.4899    1.3063 C   0  0  0  0  0  0  0  0  0  0  0  0
    4.6204   -3.4745    0.6320 O   0  0  0  0  0  0  0  0  0  0  0  0
    4.7103   -3.4137   -0.7798 C   0  0  0  0  0  0  0  0  0  0  0  0
    5.4217   -4.6425   -1.2715 C   0  0  0  0  0  0  0  0  0  0  0  0
    6.5289   -4.6193   -2.0892 C   0  0  0  0  0  0  0  0  0  0  0  0
    7.0837   -6.2043   -2.4845 S   0  0  0  0  0  0  0  0  0  0  0  0
    5.8044   -6.9390   -1.5459 C   0  0  0  0  0  0  0  0  0  0  0  0
    5.5894   -8.4073   -1.3808 C   0  0  0  0  0  0  0  0  0  0  0  0
    4.8123   -8.8396   -0.5583 O   0  0  0  0  0  0  0  0  0  0  0  0
    6.3369   -9.1997   -2.2435 N   0  0  0  0  0  0  0  0  0  0  0  0
    6.3694  -10.5880   -2.2984 C   0  0  0  0  0  0  0  0  0  0  0  0
    6.0247  -11.4252   -1.2901 N   0  0  0  0  0  0  0  0  0  0  0  0
    6.2596  -12.6132   -1.8135 C   0  0  0  0  0  0  0  0  0  0  0  0
    6.7245  -12.4967   -3.0772 N   0  0  0  0  0  0  0  0  0  0  0  0
    7.1680  -13.5309   -4.0033 C   0  0  0  0  0  0  0  0  0  0  0  0
    8.6692  -13.7502   -4.0199 C   0  0  0  0  0  0  0  0  0  0  0  0
    9.2118  -14.9944   -3.6708 C   0  0  0  0  0  0  0  0  0  0  0  0
   10.5923  -15.2127   -3.6963 C   0  0  0  0  0  0  0  0  0  0  0  0
   11.4281  -14.1650   -4.0716 C   0  0  0  0  0  0  0  0  0  0  0  0
   12.7531  -14.3621   -4.0982 F   0  0  0  0  0  0  0  0  0  0  0  0
   10.9200  -12.9142   -4.4215 C   0  0  0  0  0  0  0  0  0  0  0  0
    9.5399  -12.7138   -4.3968 C   0  0  0  0  0  0  0  0  0  0  0  0
    6.8002  -11.1865   -3.4064 N   0  0  0  0  0  0  0  0  0  0  0  0
    5.0168   -5.9760   -0.9596 C   0  0  0  0  0  0  0  0  0  0  0  0
    3.3880   -1.3657    0.7013 C   0  0  0  0  0  0  0  0  0  0  0  0
    1.6545    1.4922    1.5329 H   0  0  0  0  0  0  0  0  0  0  0  0
    1.3280    0.5087    0.0866 H   0  0  0  0  0  0  0  0  0  0  0  0
    2.8644    1.3803    0.2326 H   0  0  0  0  0  0  0  0  0  0  0  0
    2.1503    0.1838    3.4776 H   0  0  0  0  0  0  0  0  0  0  0  0
    3.1776   -1.8155    4.5509 H   0  0  0  0  0  0  0  0  0  0  0  0
    4.3435   -3.5349    3.1507 H   0  0  0  0  0  0  0  0  0  0  0  0
    5.2518   -2.5051   -1.1016 H   0  0  0  0  0  0  0  0  0  0  0  0
    3.6941   -3.3635   -1.2179 H   0  0  0  0  0  0  0  0  0  0  0  0
    7.0614   -3.7464   -2.4661 H   0  0  0  0  0  0  0  0  0  0  0  0
    6.7951   -8.7533   -3.0309 H   0  0  0  0  0  0  0  0  0  0  0  0
    6.1078  -13.5746   -1.3230 H   0  0  0  0  0  0  0  0  0  0  0  0
    6.8048  -13.2353   -4.9996 H   0  0  0  0  0  0  0  0  0  0  0  0
    6.6523  -14.4611   -3.7249 H   0  0  0  0  0  0  0  0  0  0  0  0
    8.5499  -15.8132   -3.3745 H   0  0  0  0  0  0  0  0  0  0  0  0
   11.0262  -16.1776   -3.4276 H   0  0  0  0  0  0  0  0  0  0  0  0
   11.6095  -12.1183   -4.7096 H   0  0  0  0  0  0  0  0  0  0  0  0
    9.1274  -11.7373   -4.6600 H   0  0  0  0  0  0  0  0  0  0  0  0
    4.1750   -6.2374   -0.3182 H   0  0  0  0  0  0  0  0  0  0  0  0
    3.4416   -1.2251   -0.3794 H   0  0  0  0  0  0  0  0  0  0  0  0
  1  2  1  0
  1 31  1  0
  1 32  1  0
  1 33  1  0
  2  3  2  0
  2 30  1  0
  3  4  1  0
  3 34  1  0
  4  5  2  0
  4 35  1  0
  5  6  1  0
  5 36  1  0
  6  7  1  0
  6 30  2  0
  7  8  1  0
  8  9  1  0
  8 37  1  0
  8 38  1  0
  9 10  1  0
  9 29  2  0
 10 11  2  0
 10 39  1  0
 11 12  1  0
 12 13  2  0
 12 29  1  0
 13 14  1  0
 13 15  1  0
 15 16  1  0
 15 40  1  0
 16 17  1  0
 16 28  2  0
 17 18  2  0
 18 19  1  0
 18 41  1  0
 19 20  1  0
 19 28  1  0
 20 21  1  0
 20 42  1  0
 20 43  1  0
 21 22  2  0
 21 27  1  0
 22 23  1  0
 22 44  1  0
 23 24  2  0
 23 45  1  0
 24 25  1  0
 24 26  1  0
 26 27  2  0
 26 46  1  0
 27 47  1  0
 29 48  1  0
 30 49  1  0
M  CHG  2  11   1  14  -1
M  END

