
     RDKit          3D

 53 55  0  0  0  0  0  0  0  0999 V2000
    2.3165   -1.1042    0.8722 C   0  0  0  0  0  0  0  0  0  0  0  0
    3.4532   -0.4392    0.1051 C   0  0  0  0  0  0  0  0  0  0  0  0
    3.2229    1.0572   -0.1140 C   0  0  0  0  0  0  0  0  0  0  0  0
    2.2407    1.6387    0.3028 O   0  0  0  0  0  0  0  0  0  0  0  0
    4.2377    1.6718   -0.8261 N   0  0  0  0  0  0  0  0  0  0  0  0
    4.3701    3.0156   -1.2083 C   0  0  0  0  0  0  0  0  0  0  0  0
    3.4251    4.0107   -0.8887 C   0  0  0  0  0  0  0  0  0  0  0  0
    3.6386    5.3217   -1.3053 C   0  0  0  0  0  0  0  0  0  0  0  0
    4.7671    5.6864   -2.0567 C   0  0  0  0  0  0  0  0  0  0  0  0
    4.9051    7.1318   -2.4424 C   0  0  0  0  0  0  0  0  0  0  0  0
    4.3319    8.0242   -1.8545 O   0  0  0  0  0  0  0  0  0  0  0  0
    5.7283    7.3568   -3.5418 N   0  0  0  0  0  0  0  0  0  0  0  0
    5.9877    8.6035   -3.9758 N   0  0  0  0  0  0  0  0  0  0  0  0
    6.6787    8.7454   -5.0467 C   0  0  0  0  0  0  0  0  0  0  0  0
    7.0168   10.0607   -5.5926 C   0  0  0  0  0  0  0  0  0  0  0  0
    6.5929   11.2495   -4.9724 C   0  0  0  0  0  0  0  0  0  0  0  0
    6.9195   12.4967   -5.5014 C   0  0  0  0  0  0  0  0  0  0  0  0
    7.6884   12.5812   -6.6771 C   0  0  0  0  0  0  0  0  0  0  0  0
    8.0582   13.7430   -7.2709 O   0  0  0  0  0  0  0  0  0  0  0  0
    7.6780   14.9797   -6.6965 C   0  0  0  0  0  0  0  0  0  0  0  0
    8.2357   16.1211   -7.5154 C   0  0  0  0  0  0  0  0  0  0  0  0
    7.6036   17.3725   -7.4779 C   0  0  0  0  0  0  0  0  0  0  0  0
    8.1293   18.4575   -8.1839 C   0  0  0  0  0  0  0  0  0  0  0  0
    9.2913   18.3009   -8.9455 C   0  0  0  0  0  0  0  0  0  0  0  0
    9.9217   17.0541   -8.9937 C   0  0  0  0  0  0  0  0  0  0  0  0
    9.3998   15.9705   -8.2816 C   0  0  0  0  0  0  0  0  0  0  0  0
    8.1170   11.3999   -7.3072 C   0  0  0  0  0  0  0  0  0  0  0  0
    7.7840   10.1623   -6.7700 C   0  0  0  0  0  0  0  0  0  0  0  0
    5.7113    4.6906   -2.3579 C   0  0  0  0  0  0  0  0  0  0  0  0
    5.5167    3.3768   -1.9415 C   0  0  0  0  0  0  0  0  0  0  0  0
    2.5188   -2.1766    1.0141 H   0  0  0  0  0  0  0  0  0  0  0  0
    1.3630   -0.9973    0.3344 H   0  0  0  0  0  0  0  0  0  0  0  0
    2.1846   -0.6399    1.8603 H   0  0  0  0  0  0  0  0  0  0  0  0
    3.5939   -0.9167   -0.8819 H   0  0  0  0  0  0  0  0  0  0  0  0
    4.4132   -0.5650    0.6388 H   0  0  0  0  0  0  0  0  0  0  0  0
    4.9998    1.0696   -1.1162 H   0  0  0  0  0  0  0  0  0  0  0  0
    2.5413    3.7404   -0.3163 H   0  0  0  0  0  0  0  0  0  0  0  0
    2.9195    6.1021   -1.0485 H   0  0  0  0  0  0  0  0  0  0  0  0
    6.0463    6.5597   -4.0954 H   0  0  0  0  0  0  0  0  0  0  0  0
    7.0510    7.8652   -5.6084 H   0  0  0  0  0  0  0  0  0  0  0  0
    5.9960   11.1783   -4.0608 H   0  0  0  0  0  0  0  0  0  0  0  0
    6.5702   13.3954   -4.9933 H   0  0  0  0  0  0  0  0  0  0  0  0
    8.0588   15.0409   -5.6574 H   0  0  0  0  0  0  0  0  0  0  0  0
    6.5762   15.0571   -6.6420 H   0  0  0  0  0  0  0  0  0  0  0  0
    6.6877   17.5005   -6.8927 H   0  0  0  0  0  0  0  0  0  0  0  0
    7.6244   19.4262   -8.1454 H   0  0  0  0  0  0  0  0  0  0  0  0
    9.7009   19.1468   -9.5033 H   0  0  0  0  0  0  0  0  0  0  0  0
   10.8277   16.9225   -9.5913 H   0  0  0  0  0  0  0  0  0  0  0  0
    9.8880   14.9956   -8.3234 H   0  0  0  0  0  0  0  0  0  0  0  0
    8.7098   11.4827   -8.2202 H   0  0  0  0  0  0  0  0  0  0  0  0
    8.1245    9.2520   -7.2724 H   0  0  0  0  0  0  0  0  0  0  0  0
    6.6324    4.9345   -2.8933 H   0  0  0  0  0  0  0  0  0  0  0  0
    6.2702    2.6190   -2.1772 H   0  0  0  0  0  0  0  0  0  0  0  0
  1  2  1  0
  1 31  1  0
  1 32  1  0
  1 33  1  0
  2  3  1  0
  2 34  1  0
  2 35  1  0
  3  4  2  0
  3  5  1  0
  5  6  1  0
  5 36  1  0
  6  7  2  0
  6 30  1  0
  7  8  1  0
  7 37  1  0
  8  9  2  0
  8 38  1  0
  9 10  1  0
  9 29  1  0
 10 11  2  0
 10 12  1  0
 12 13  1  0
 12 39  1  0
 13 14  2  0
 14 15  1  0
 14 40  1  0
 15 16  2  0
 15 28  1  0
 16 17  1  0
 16 41  1  0
 17 18  2  0
 17 42  1  0
 18 19  1  0
 18 27  1  0
 19 20  1  0
 20 21  1  0
 20 43  1  0
 20 44  1  0
 21 22  2  0
 21 26  1  0
 22 23  1  0
 22 45  1  0
 23 24  2  0
 23 46  1  0
 24 25  1  0
 24 47  1  0
 25 26  2  0
 25 48  1  0
 26 49  1  0
 27 28  2  0
 27 50  1  0
 28 51  1  0
 29 30  2  0
 29 52  1  0
 30 53  1  0
M  END

