
     RDKit          3D

 47 49  0  0  0  0  0  0  0  0999 V2000
    3.3671    0.7100    2.7790 C   0  0  0  0  0  0  0  0  0  0  0  0
    4.4972    1.7469    2.7699 C   0  0  1  0  0  0  0  0  0  0  0  0
    4.5546    2.5100    4.1002 C   0  0  0  0  0  0  0  0  0  0  0  0
    5.8727    1.1204    2.4691 C   0  0  0  0  0  0  0  0  0  0  0  0
    6.0167    0.4087    1.1115 C   0  0  1  0  0  0  0  0  0  0  0  0
    5.2598   -0.3923    1.0574 H   0  0  0  0  0  0  0  0  0  0  0  0
    5.8459    1.3389    0.0118 N   0  0  0  0  0  0  0  0  0  0  0  0
    5.4163    0.9921   -1.2536 C   0  0  0  0  0  0  0  0  0  0  0  0
    5.3908   -0.3520   -1.6967 C   0  0  0  0  0  0  0  0  0  0  0  0
    4.9543   -0.5467   -2.9952 C   0  0  0  0  0  0  0  0  0  0  0  0
    4.5667    0.5203   -3.8228 C   0  0  0  0  0  0  0  0  0  0  0  0
    4.6290    1.8360   -3.2966 C   0  0  0  0  0  0  0  0  0  0  0  0
    4.2710    3.0714   -4.0008 C   0  0  0  0  0  0  0  0  0  0  0  0
    3.7955    3.3338   -5.3216 C   0  0  0  0  0  0  0  0  0  0  0  0
    3.6057    4.6310   -5.5212 N   0  0  0  0  0  0  0  0  0  0  0  0
    3.9459    5.2278   -4.3603 N   0  0  0  0  0  0  0  0  0  0  0  0
    3.8465    6.6668   -4.2452 C   0  0  0  0  0  0  0  0  0  0  0  0
    4.3485    4.3418   -3.4244 C   0  0  0  0  0  0  0  0  0  0  0  0
    5.0497    2.0169   -2.0300 N   0  0  0  0  0  0  0  0  0  0  0  0
    4.1573   -0.0456   -5.1488 C   0  0  0  0  0  0  0  0  0  0  0  0
    3.7558    0.5009   -6.1605 O   0  0  0  0  0  0  0  0  0  0  0  0
    4.3257   -1.4100   -5.0254 N   0  0  0  0  0  0  0  0  0  0  0  0
    4.8149   -1.8517   -3.7417 C   0  0  0  0  0  0  0  0  0  0  0  0
    7.3688   -0.3425    1.0952 C   0  0  0  0  0  0  0  0  0  0  0  0
    8.3440    0.2335    0.3473 N   0  0  0  0  0  0  0  0  0  0  0  0
    7.5211   -1.3552    1.7545 O   0  0  0  0  0  0  0  0  0  0  0  0
    2.4032    1.1835    3.0245 H   0  0  0  0  0  0  0  0  0  0  0  0
    3.5566   -0.0735    3.5326 H   0  0  0  0  0  0  0  0  0  0  0  0
    3.2466    0.2144    1.8031 H   0  0  0  0  0  0  0  0  0  0  0  0
    4.2681    2.4837    1.9767 H   0  0  0  0  0  0  0  0  0  0  0  0
    4.7748    1.8258    4.9374 H   0  0  0  0  0  0  0  0  0  0  0  0
    3.5948    3.0050    4.3179 H   0  0  0  0  0  0  0  0  0  0  0  0
    5.3383    3.2850    4.0900 H   0  0  0  0  0  0  0  0  0  0  0  0
    6.1130    0.3755    3.2446 H   0  0  0  0  0  0  0  0  0  0  0  0
    6.6537    1.9000    2.5343 H   0  0  0  0  0  0  0  0  0  0  0  0
    5.6773    2.3152    0.2301 H   0  0  0  0  0  0  0  0  0  0  0  0
    5.7048   -1.1815   -1.0626 H   0  0  0  0  0  0  0  0  0  0  0  0
    3.5968    2.6044   -6.1030 H   0  0  0  0  0  0  0  0  0  0  0  0
    4.4903    7.1531   -4.9937 H   0  0  0  0  0  0  0  0  0  0  0  0
    4.1635    6.9728   -3.2394 H   0  0  0  0  0  0  0  0  0  0  0  0
    2.8083    6.9913   -4.4140 H   0  0  0  0  0  0  0  0  0  0  0  0
    4.6603    4.6375   -2.4268 H   0  0  0  0  0  0  0  0  0  0  0  0
    4.1155   -2.0241   -5.8014 H   0  0  0  0  0  0  0  0  0  0  0  0
    5.7851   -2.3788   -3.8131 H   0  0  0  0  0  0  0  0  0  0  0  0
    4.1105   -2.5331   -3.2283 H   0  0  0  0  0  0  0  0  0  0  0  0
    8.1353    1.0357   -0.2336 H   0  0  0  0  0  0  0  0  0  0  0  0
    9.2466   -0.2217    0.2865 H   0  0  0  0  0  0  0  0  0  0  0  0
  1  2  1  0
  1 27  1  0
  1 28  1  0
  1 29  1  0
  2  3  1  0
  2  4  1  0
  2 30  1  6
  3 31  1  0
  3 32  1  0
  3 33  1  0
  4  5  1  0
  4 34  1  0
  4 35  1  0
  5  6  1  6
  5  7  1  0
  5 24  1  0
  7  8  1  0
  7 36  1  0
  8  9  2  0
  8 19  1  0
  9 10  1  0
  9 37  1  0
 10 11  2  0
 10 23  1  0
 11 12  1  0
 11 20  1  0
 12 13  1  0
 12 19  2  0
 13 14  1  0
 13 18  2  0
 14 15  2  0
 14 38  1  0
 15 16  1  0
 16 17  1  0
 16 18  1  0
 17 39  1  0
 17 40  1  0
 17 41  1  0
 18 42  1  0
 20 21  2  0
 20 22  1  0
 22 23  1  0
 22 43  1  0
 23 44  1  0
 23 45  1  0
 24 25  1  0
 24 26  2  0
 25 46  1  0
 25 47  1  0
M  END

