
     RDKit          3D

 45 45  0  0  0  0  0  0  0  0999 V2000
    4.7148    1.6080    0.8081 C   0  0  0  0  0  0  0  0  0  0  0  0
    4.0927    1.5218   -0.5757 C   0  0  0  0  0  0  0  0  0  0  0  0
    4.6978    0.4833   -1.3679 O   0  0  0  0  0  0  0  0  0  0  0  0
    4.2102   -0.7632   -1.2397 C   0  0  0  0  0  0  0  0  0  0  0  0
    3.2947   -1.0563   -0.5033 O   0  0  0  0  0  0  0  0  0  0  0  0
    4.9212   -1.7446   -2.1110 C   0  0  0  0  0  0  0  0  0  0  0  0
    5.9828   -1.3939   -2.9498 C   0  0  0  0  0  0  0  0  0  0  0  0
    6.6051   -2.2906   -3.7246 N   0  0  0  0  0  0  0  0  0  0  0  0
    6.2049   -3.5370   -3.6925 C   0  0  0  0  0  0  0  0  0  0  0  0
    6.9101   -4.4539   -4.4426 O   0  0  0  0  0  0  0  0  0  0  0  0
    6.3266   -4.9291   -5.5672 C   0  0  0  0  0  0  0  0  0  0  0  0
    5.3319   -4.4780   -6.0704 O   0  0  0  0  0  0  0  0  0  0  0  0
    7.0446   -5.9805   -6.1169 N   0  0  0  0  0  0  0  0  0  0  0  0
    8.0035   -6.8197   -5.5645 C   0  0  0  0  0  0  0  0  0  0  0  0
    8.4179   -6.7920   -4.4307 O   0  0  0  0  0  0  0  0  0  0  0  0
    8.5356   -7.8316   -6.5956 C   0  0  0  0  0  0  0  0  0  0  0  0
    7.6467   -8.0240   -7.7347 N   0  0  0  0  0  0  0  0  0  0  0  0
    5.1478   -4.0184   -2.8784 C   0  0  0  0  0  0  0  0  0  0  0  0
    4.8777   -5.3330   -2.9551 O   0  0  0  0  0  0  0  0  0  0  0  0
    3.9063   -5.9118   -2.0910 C   0  0  0  0  0  0  0  0  0  0  0  0
    3.9334   -7.4278   -2.2759 C   0  0  1  0  0  0  0  0  0  0  0  0
    5.3067   -8.0135   -1.9258 C   0  0  0  0  0  0  0  0  0  0  0  0
    2.8073   -8.0724   -1.4593 C   0  0  0  0  0  0  0  0  0  0  0  0
    4.4977   -3.0854   -2.0752 C   0  0  0  0  0  0  0  0  0  0  0  0
    4.2857    2.4611    1.3579 H   0  0  0  0  0  0  0  0  0  0  0  0
    5.8042    1.7537    0.7424 H   0  0  0  0  0  0  0  0  0  0  0  0
    4.5130    0.6935    1.3852 H   0  0  0  0  0  0  0  0  0  0  0  0
    4.2644    2.4441   -1.1492 H   0  0  0  0  0  0  0  0  0  0  0  0
    3.0109    1.3343   -0.5102 H   0  0  0  0  0  0  0  0  0  0  0  0
    6.3381   -0.3619   -2.9942 H   0  0  0  0  0  0  0  0  0  0  0  0
    6.7475   -6.2707   -7.0521 H   0  0  0  0  0  0  0  0  0  0  0  0
    8.7879   -8.7446   -6.0272 H   0  0  0  0  0  0  0  0  0  0  0  0
    9.4935   -7.4141   -6.9497 H   0  0  0  0  0  0  0  0  0  0  0  0
    6.9778   -8.7745   -7.5655 H   0  0  0  0  0  0  0  0  0  0  0  0
    8.1585   -8.2628   -8.5813 H   0  0  0  0  0  0  0  0  0  0  0  0
    2.9067   -5.5041   -2.3306 H   0  0  0  0  0  0  0  0  0  0  0  0
    4.1372   -5.6479   -1.0411 H   0  0  0  0  0  0  0  0  0  0  0  0
    3.7377   -7.6158   -3.3475 H   0  0  0  0  0  0  0  0  0  0  0  0
    5.5353   -7.8643   -0.8560 H   0  0  0  0  0  0  0  0  0  0  0  0
    6.1089   -7.5404   -2.5112 H   0  0  0  0  0  0  0  0  0  0  0  0
    5.3306   -9.0976   -2.1212 H   0  0  0  0  0  0  0  0  0  0  0  0
    2.9449   -7.8941   -0.3789 H   0  0  0  0  0  0  0  0  0  0  0  0
    2.7892   -9.1627   -1.6124 H   0  0  0  0  0  0  0  0  0  0  0  0
    1.8171   -7.6788   -1.7416 H   0  0  0  0  0  0  0  0  0  0  0  0
    3.6719   -3.3536   -1.4164 H   0  0  0  0  0  0  0  0  0  0  0  0
  1  2  1  0
  1 25  1  0
  1 26  1  0
  1 27  1  0
  2  3  1  0
  2 28  1  0
  2 29  1  0
  3  4  1  0
  4  5  2  0
  4  6  1  0
  6  7  2  0
  6 24  1  0
  7  8  1  0
  7 30  1  0
  8  9  2  0
  9 10  1  0
  9 18  1  0
 10 11  1  0
 11 12  2  0
 11 13  1  0
 13 14  1  0
 13 31  1  0
 14 15  2  0
 14 16  1  0
 16 17  1  0
 16 32  1  0
 16 33  1  0
 17 34  1  0
 17 35  1  0
 18 19  1  0
 18 24  2  0
 19 20  1  0
 20 21  1  0
 20 36  1  0
 20 37  1  0
 21 22  1  0
 21 23  1  0
 21 38  1  6
 22 39  1  0
 22 40  1  0
 22 41  1  0
 23 42  1  0
 23 43  1  0
 23 44  1  0
 24 45  1  0
M  END

