
     RDKit          3D

 49 50  0  0  0  0  0  0  0  0999 V2000
    5.2150    1.5395    0.0381 C   0  0  0  0  0  0  0  0  0  0  0  0
    4.8205    0.8631   -1.1945 N   0  0  0  0  0  0  0  0  0  0  0  0
    5.9492    0.7108   -2.1196 C   0  0  0  0  0  0  0  0  0  0  0  0
    3.6148    1.3198   -1.7857 C   0  0  0  0  0  0  0  0  0  0  0  0
    3.1795    2.5241   -1.4103 N   0  0  0  0  0  0  0  0  0  0  0  0
    2.0798    3.0334   -1.9672 C   0  0  0  0  0  0  0  0  0  0  0  0
    1.3646    2.3821   -2.9717 C   0  0  0  0  0  0  0  0  0  0  0  0
    1.7859    1.1038   -3.3371 C   0  0  0  0  0  0  0  0  0  0  0  0
    2.8997    0.5207   -2.7227 C   0  0  0  0  0  0  0  0  0  0  0  0
    3.1471   -0.9340   -3.0654 C   0  0  0  0  0  0  0  0  0  0  0  0
    2.6567   -1.4311   -4.0719 O   0  0  0  0  0  0  0  0  0  0  0  0
    3.8657   -1.6523   -2.1568 N   0  0  0  0  0  0  0  0  0  0  0  0
    4.1686   -3.0574   -2.3392 C   0  0  0  0  0  0  0  0  0  0  0  0
    3.2971   -4.0591   -1.5114 C   0  0  1  0  0  0  0  0  0  0  0  0
    3.5859   -3.8172   -0.0218 C   0  0  0  0  0  0  0  0  0  0  0  0
    1.7950   -3.7903   -1.7609 C   0  0  0  0  0  0  0  0  0  0  0  0
    3.7372   -5.4107   -1.9276 N   0  0  0  0  0  0  0  0  0  0  0  0
    3.9452   -6.4999   -0.9883 C   0  0  0  0  0  0  0  0  0  0  0  0
    2.7255   -7.4024   -0.7590 C   0  0  0  0  0  0  0  0  0  0  0  0
    2.2997   -8.2993   -2.3319 S   0  0  0  0  0  0  0  0  0  0  0  0
    3.5916   -8.9518   -2.7849 O   0  0  0  0  0  0  0  0  0  0  0  0
    2.1306   -6.7548   -3.3464 C   0  0  0  0  0  0  0  0  0  0  0  0
    3.3960   -5.8874   -3.2611 C   0  0  0  0  0  0  0  0  0  0  0  0
    6.0324    0.9671    0.5038 H   0  0  0  0  0  0  0  0  0  0  0  0
    4.3675    1.5831    0.7340 H   0  0  0  0  0  0  0  0  0  0  0  0
    5.5591    2.5758   -0.1341 H   0  0  0  0  0  0  0  0  0  0  0  0
    6.7363    0.1006   -1.6491 H   0  0  0  0  0  0  0  0  0  0  0  0
    6.3885    1.6922   -2.3880 H   0  0  0  0  0  0  0  0  0  0  0  0
    5.6376    0.2094   -3.0439 H   0  0  0  0  0  0  0  0  0  0  0  0
    1.7599    4.0164   -1.6009 H   0  0  0  0  0  0  0  0  0  0  0  0
    0.4898    2.8476   -3.4299 H   0  0  0  0  0  0  0  0  0  0  0  0
    1.2502    0.5081   -4.0792 H   0  0  0  0  0  0  0  0  0  0  0  0
    4.2684   -1.1276   -1.3812 H   0  0  0  0  0  0  0  0  0  0  0  0
    5.2220   -3.2449   -2.0762 H   0  0  0  0  0  0  0  0  0  0  0  0
    4.0468   -3.2680   -3.4092 H   0  0  0  0  0  0  0  0  0  0  0  0
    3.3501   -2.7713    0.2248 H   0  0  0  0  0  0  0  0  0  0  0  0
    4.6447   -3.9921    0.2250 H   0  0  0  0  0  0  0  0  0  0  0  0
    2.9657   -4.4483    0.6327 H   0  0  0  0  0  0  0  0  0  0  0  0
    1.5228   -2.7777   -1.4276 H   0  0  0  0  0  0  0  0  0  0  0  0
    1.1732   -4.5038   -1.1974 H   0  0  0  0  0  0  0  0  0  0  0  0
    1.5363   -3.8539   -2.8270 H   0  0  0  0  0  0  0  0  0  0  0  0
    4.3042   -6.1230   -0.0228 H   0  0  0  0  0  0  0  0  0  0  0  0
    4.7443   -7.1537   -1.3824 H   0  0  0  0  0  0  0  0  0  0  0  0
    1.8275   -6.8587   -0.4241 H   0  0  0  0  0  0  0  0  0  0  0  0
    2.9467   -8.2091   -0.0425 H   0  0  0  0  0  0  0  0  0  0  0  0
    1.2184   -6.2401   -3.0089 H   0  0  0  0  0  0  0  0  0  0  0  0
    1.9723   -7.1249   -4.3715 H   0  0  0  0  0  0  0  0  0  0  0  0
    3.2854   -5.0411   -3.9542 H   0  0  0  0  0  0  0  0  0  0  0  0
    4.2297   -6.5022   -3.6450 H   0  0  0  0  0  0  0  0  0  0  0  0
  1  2  1  0
  1 24  1  0
  1 25  1  0
  1 26  1  0
  2  3  1  0
  2  4  1  0
  3 27  1  0
  3 28  1  0
  3 29  1  0
  4  5  2  0
  4  9  1  0
  5  6  1  0
  6  7  2  0
  6 30  1  0
  7  8  1  0
  7 31  1  0
  8  9  2  0
  8 32  1  0
  9 10  1  0
 10 11  2  0
 10 12  1  0
 12 13  1  0
 12 33  1  0
 14 13  1  6
 13 34  1  0
 13 35  1  0
 14 15  1  0
 14 16  1  0
 14 17  1  0
 15 36  1  0
 15 37  1  0
 15 38  1  0
 16 39  1  0
 16 40  1  0
 16 41  1  0
 17 18  1  0
 17 23  1  0
 18 19  1  0
 18 42  1  0
 18 43  1  0
 19 20  1  0
 19 44  1  0
 19 45  1  0
 20 21  1  6
 20 22  1  0
 22 23  1  0
 22 46  1  0
 22 47  1  0
 23 48  1  0
 23 49  1  0
M  CHG  2  20   1  21  -1
M  END

