
     RDKit          3D

 43 44  0  0  0  0  0  0  0  0999 V2000
    2.2343   -0.0347    2.9366 C   0  0  0  0  0  0  0  0  0  0  0  0
    2.3877    0.3176    1.5800 O   0  0  0  0  0  0  0  0  0  0  0  0
    2.5510   -0.6510    0.6462 C   0  0  0  0  0  0  0  0  0  0  0  0
    2.6881   -0.2146   -0.6811 C   0  0  0  0  0  0  0  0  0  0  0  0
    2.8602   -1.1537   -1.6958 C   0  0  0  0  0  0  0  0  0  0  0  0
    2.8986   -2.5216   -1.4178 C   0  0  0  0  0  0  0  0  0  0  0  0
    2.7574   -2.9497   -0.0923 C   0  0  0  0  0  0  0  0  0  0  0  0
    2.7960   -4.3035    0.1100 O   0  0  0  0  0  0  0  0  0  0  0  0
    2.7578   -4.8117    1.4324 C   0  0  0  0  0  0  0  0  0  0  0  0
    2.8642   -6.2997    1.3747 C   0  0  0  0  0  0  0  0  0  0  0  0
    3.6082   -7.0254    2.1837 N   0  0  0  0  0  0  0  0  0  0  0  0
    3.4132   -8.3123    1.8285 N   0  0  0  0  0  0  0  0  0  0  0  0
    2.5973   -8.3992    0.8412 N   0  0  0  0  0  0  0  0  0  0  0  0
    2.2174   -7.1416    0.5279 N   0  0  0  0  0  0  0  0  0  0  0  0
    1.3213   -6.8484   -0.5898 C   0  0  1  0  0  0  0  0  0  0  0  0
    0.9727   -8.0934   -1.4384 C   0  0  0  0  0  0  0  0  0  0  0  0
    0.1001   -9.2230   -0.8499 C   0  0  1  0  0  0  0  0  0  0  0  0
   -1.3167   -8.7885   -0.4503 C   0  0  0  0  0  0  0  0  0  0  0  0
    0.0500  -10.3754   -1.8633 C   0  0  0  0  0  0  0  0  0  0  0  0
    0.1082   -6.0358   -0.0959 C   0  0  0  0  0  0  0  0  0  0  0  0
   -0.1046   -5.7657    1.0530 O   0  0  0  0  0  0  0  0  0  0  0  0
   -0.7007   -5.5927   -1.0740 O   0  0  0  0  0  0  0  0  0  0  0  0
    2.5863   -2.0239    0.9485 C   0  0  0  0  0  0  0  0  0  0  0  0
    2.1150    0.9054    3.4917 H   0  0  0  0  0  0  0  0  0  0  0  0
    3.1202   -0.5677    3.3270 H   0  0  0  0  0  0  0  0  0  0  0  0
    1.3393   -0.6616    3.1009 H   0  0  0  0  0  0  0  0  0  0  0  0
    2.6578    0.8567   -0.8852 H   0  0  0  0  0  0  0  0  0  0  0  0
    2.9713   -0.8135   -2.7286 H   0  0  0  0  0  0  0  0  0  0  0  0
    3.0453   -3.2625   -2.2053 H   0  0  0  0  0  0  0  0  0  0  0  0
    1.8133   -4.5318    1.9307 H   0  0  0  0  0  0  0  0  0  0  0  0
    3.6058   -4.4444    2.0339 H   0  0  0  0  0  0  0  0  0  0  0  0
    1.8758   -6.1564   -1.2453 H   0  0  0  0  0  0  0  0  0  0  0  0
    1.9316   -8.5244   -1.7644 H   0  0  0  0  0  0  0  0  0  0  0  0
    0.4938   -7.7211   -2.3648 H   0  0  0  0  0  0  0  0  0  0  0  0
    0.6144   -9.5912    0.0506 H   0  0  0  0  0  0  0  0  0  0  0  0
   -1.8574   -8.3223   -1.2919 H   0  0  0  0  0  0  0  0  0  0  0  0
   -1.3211   -8.0805    0.3911 H   0  0  0  0  0  0  0  0  0  0  0  0
   -1.9024   -9.6645   -0.1298 H   0  0  0  0  0  0  0  0  0  0  0  0
   -0.4451  -10.0649   -2.8006 H   0  0  0  0  0  0  0  0  0  0  0  0
   -0.5155  -11.2290   -1.4583 H   0  0  0  0  0  0  0  0  0  0  0  0
    1.0594  -10.7352   -2.1194 H   0  0  0  0  0  0  0  0  0  0  0  0
   -0.4062   -5.8973   -1.9448 H   0  0  0  0  0  0  0  0  0  0  0  0
    2.4743   -2.3615    1.9754 H   0  0  0  0  0  0  0  0  0  0  0  0
  1  2  1  0
  1 24  1  0
  1 25  1  0
  1 26  1  0
  2  3  1  0
  3  4  2  0
  3 23  1  0
  4  5  1  0
  4 27  1  0
  5  6  2  0
  5 28  1  0
  6  7  1  0
  6 29  1  0
  7  8  1  0
  7 23  2  0
  8  9  1  0
  9 10  1  0
  9 30  1  0
  9 31  1  0
 10 11  2  0
 10 14  1  0
 11 12  1  0
 12 13  2  0
 13 14  1  0
 14 15  1  0
 15 16  1  0
 15 20  1  0
 15 32  1  6
 16 17  1  0
 16 33  1  0
 16 34  1  0
 17 18  1  0
 17 19  1  0
 17 35  1  1
 18 36  1  0
 18 37  1  0
 18 38  1  0
 19 39  1  0
 19 40  1  0
 19 41  1  0
 20 21  2  0
 20 22  1  0
 22 42  1  0
 23 43  1  0
M  END

