
     RDKit          3D

 58 60  0  0  0  0  0  0  0  0999 V2000
   -5.2220   -6.4258   -2.4608 C   0  0  0  0  0  0  0  0  0  0  0  0
   -4.5435   -5.4516   -3.4365 C   0  0  0  0  0  0  0  0  0  0  0  0
   -3.0322   -5.4760   -3.3521 C   0  0  0  0  0  0  0  0  0  0  0  0
   -2.2755   -6.3706   -4.1266 C   0  0  0  0  0  0  0  0  0  0  0  0
   -0.8846   -6.4239   -4.0210 C   0  0  0  0  0  0  0  0  0  0  0  0
   -0.1952   -5.5801   -3.1369 C   0  0  0  0  0  0  0  0  0  0  0  0
    1.3101   -5.6661   -2.9713 C   0  0  0  0  0  0  0  0  0  0  0  0
    2.0440   -5.8571   -4.2220 N   0  0  0  0  0  0  0  0  0  0  0  0
    1.9647   -4.6933   -5.0929 C   0  0  0  0  0  0  0  0  0  0  0  0
    3.4287   -6.2545   -3.9887 C   0  0  0  0  0  0  0  0  0  0  0  0
    3.5908   -7.6168   -3.2985 C   0  0  0  0  0  0  0  0  0  0  0  0
    4.0358   -7.6749   -2.1609 O   0  0  0  0  0  0  0  0  0  0  0  0
    3.2427   -8.7440   -4.0042 N   0  0  0  0  0  0  0  0  0  0  0  0
    3.5104  -10.0563   -3.4180 C   0  0  0  0  0  0  0  0  0  0  0  0
    2.2857  -10.9640   -3.5375 C   0  0  0  0  0  0  0  0  0  0  0  0
    1.7960  -11.0150   -4.9200 N   0  0  0  0  0  0  0  0  0  0  0  0
    2.2920  -12.2845   -5.8969 S   0  0  1  0  0  0  0  0  0  0  0  0
    2.1660  -11.8489   -7.2873 O   0  0  0  0  0  0  0  0  0  0  0  0
    3.5649  -12.8129   -5.3897 O   0  0  0  0  0  0  0  0  0  0  0  0
    1.0707  -13.5840   -5.5832 C   0  0  0  0  0  0  0  0  0  0  0  0
    1.5565  -14.8022   -5.0926 C   0  0  0  0  0  0  0  0  0  0  0  0
    0.6884  -15.8712   -4.8657 C   0  0  0  0  0  0  0  0  0  0  0  0
   -0.6746  -15.7250   -5.1337 C   0  0  0  0  0  0  0  0  0  0  0  0
   -1.1688  -14.5157   -5.6271 C   0  0  0  0  0  0  0  0  0  0  0  0
   -0.3007  -13.4438   -5.8577 C   0  0  0  0  0  0  0  0  0  0  0  0
   -0.9827  -11.9624   -6.4732 Cl  0  0  0  0  0  0  0  0  0  0  0  0
    1.5467   -9.6998   -5.5125 C   0  0  0  0  0  0  0  0  0  0  0  0
    2.7614   -8.7732   -5.3818 C   0  0  0  0  0  0  0  0  0  0  0  0
   -0.9464   -4.6787   -2.3704 C   0  0  0  0  0  0  0  0  0  0  0  0
   -2.3393   -4.6310   -2.4726 C   0  0  0  0  0  0  0  0  0  0  0  0
   -6.3194   -6.3793   -2.5523 H   0  0  0  0  0  0  0  0  0  0  0  0
   -4.9580   -6.1908   -1.4171 H   0  0  0  0  0  0  0  0  0  0  0  0
   -4.9090   -7.4645   -2.6543 H   0  0  0  0  0  0  0  0  0  0  0  0
   -4.9038   -4.4283   -3.2366 H   0  0  0  0  0  0  0  0  0  0  0  0
   -4.8557   -5.6937   -4.4666 H   0  0  0  0  0  0  0  0  0  0  0  0
   -2.7860   -7.0357   -4.8302 H   0  0  0  0  0  0  0  0  0  0  0  0
   -0.3149   -7.1181   -4.6423 H   0  0  0  0  0  0  0  0  0  0  0  0
    1.5478   -6.5144   -2.3075 H   0  0  0  0  0  0  0  0  0  0  0  0
    1.6680   -4.7606   -2.4312 H   0  0  0  0  0  0  0  0  0  0  0  0
    0.9130   -4.4326   -5.2796 H   0  0  0  0  0  0  0  0  0  0  0  0
    2.4385   -4.9126   -6.0631 H   0  0  0  0  0  0  0  0  0  0  0  0
    2.4674   -3.7983   -4.6621 H   0  0  0  0  0  0  0  0  0  0  0  0
    3.9696   -5.5390   -3.3361 H   0  0  0  0  0  0  0  0  0  0  0  0
    3.9529   -6.2705   -4.9586 H   0  0  0  0  0  0  0  0  0  0  0  0
    3.7942   -9.9014   -2.3696 H   0  0  0  0  0  0  0  0  0  0  0  0
    4.3552  -10.5352   -3.9461 H   0  0  0  0  0  0  0  0  0  0  0  0
    1.4644  -10.5834   -2.9056 H   0  0  0  0  0  0  0  0  0  0  0  0
    2.5336  -11.9779   -3.1967 H   0  0  0  0  0  0  0  0  0  0  0  0
    2.6262  -14.8892   -4.8970 H   0  0  0  0  0  0  0  0  0  0  0  0
    1.0794  -16.8161   -4.4823 H   0  0  0  0  0  0  0  0  0  0  0  0
   -1.3638  -16.5548   -4.9599 H   0  0  0  0  0  0  0  0  0  0  0  0
   -2.2313  -14.3890   -5.8411 H   0  0  0  0  0  0  0  0  0  0  0  0
    0.6829   -9.2587   -4.9860 H   0  0  0  0  0  0  0  0  0  0  0  0
    1.2783   -9.8281   -6.5677 H   0  0  0  0  0  0  0  0  0  0  0  0
    2.4635   -7.7652   -5.6902 H   0  0  0  0  0  0  0  0  0  0  0  0
    3.5616   -9.1368   -6.0552 H   0  0  0  0  0  0  0  0  0  0  0  0
   -0.4336   -3.9988   -1.6834 H   0  0  0  0  0  0  0  0  0  0  0  0
   -2.8977   -3.9133   -1.8637 H   0  0  0  0  0  0  0  0  0  0  0  0
  1  2  1  0
  1 31  1  0
  1 32  1  0
  1 33  1  0
  2  3  1  0
  2 34  1  0
  2 35  1  0
  3  4  2  0
  3 30  1  0
  4  5  1  0
  4 36  1  0
  5  6  2  0
  5 37  1  0
  6  7  1  0
  6 29  1  0
  7  8  1  0
  7 38  1  0
  7 39  1  0
  8  9  1  0
  8 10  1  0
  9 40  1  0
  9 41  1  0
  9 42  1  0
 10 11  1  0
 10 43  1  0
 10 44  1  0
 11 12  2  0
 11 13  1  0
 13 14  1  0
 13 28  1  0
 14 15  1  0
 14 45  1  0
 14 46  1  0
 15 16  1  0
 15 47  1  0
 15 48  1  0
 16 17  1  0
 16 27  1  0
 17 18  2  0
 17 19  2  0
 17 20  1  6
 20 21  2  0
 20 25  1  0
 21 22  1  0
 21 49  1  0
 22 23  2  0
 22 50  1  0
 23 24  1  0
 23 51  1  0
 24 25  2  0
 24 52  1  0
 25 26  1  0
 27 28  1  0
 27 53  1  0
 27 54  1  0
 28 55  1  0
 28 56  1  0
 29 30  2  0
 29 57  1  0
 30 58  1  0
M  END

