
     RDKit          3D

 36 37  0  0  0  0  0  0  0  0999 V2000
    0.9385    0.2127    0.0036 C   0  0  0  0  0  0  0  0  0  0  0  0
    2.2997   -0.1158    0.2251 O   0  0  0  0  0  0  0  0  0  0  0  0
    3.0349    0.5535    1.1663 C   0  0  0  0  0  0  0  0  0  0  0  0
    2.5026    1.5849    1.9491 C   0  0  0  0  0  0  0  0  0  0  0  0
    3.3005    2.2348    2.8938 C   0  0  0  0  0  0  0  0  0  0  0  0
    4.6374    1.8674    3.0793 C   0  0  0  0  0  0  0  0  0  0  0  0
    5.5342    2.5801    4.0644 C   0  0  0  0  0  0  0  0  0  0  0  0
    4.7491    3.2059    5.0600 O   0  0  0  0  0  0  0  0  0  0  0  0
    5.3557    3.9205    6.0482 C   0  0  0  0  0  0  0  0  0  0  0  0
    6.7417    4.0891    6.1564 C   0  0  0  0  0  0  0  0  0  0  0  0
    7.2818    4.8411    7.2069 C   0  0  0  0  0  0  0  0  0  0  0  0
    6.4292    5.4176    8.1433 C   0  0  0  0  0  0  0  0  0  0  0  0
    7.1492    6.4451    9.5832 Br  0  0  0  0  0  0  0  0  0  0  0  0
    5.0432    5.2491    8.0409 C   0  0  0  0  0  0  0  0  0  0  0  0
    4.4854    4.5037    6.9997 C   0  0  0  0  0  0  0  0  0  0  0  0
    2.9973    4.3123    6.8721 C   0  0  0  0  0  0  0  0  0  0  0  0
    5.1532    0.8312    2.2964 C   0  0  0  0  0  0  0  0  0  0  0  0
    4.3849    0.1623    1.3360 C   0  0  0  0  0  0  0  0  0  0  0  0
    5.0865   -0.9386    0.5672 C   0  0  0  0  0  0  0  0  0  0  0  0
    6.2419   -1.2150    0.7763 O   0  0  0  0  0  0  0  0  0  0  0  0
    4.3760   -1.5953   -0.3575 O   0  0  0  0  0  0  0  0  0  0  0  0
    0.5832   -0.4613   -0.7863 H   0  0  0  0  0  0  0  0  0  0  0  0
    0.8285    1.2569   -0.3338 H   0  0  0  0  0  0  0  0  0  0  0  0
    0.3355    0.0558    0.9134 H   0  0  0  0  0  0  0  0  0  0  0  0
    1.4635    1.8912    1.8320 H   0  0  0  0  0  0  0  0  0  0  0  0
    2.8733    3.0342    3.5008 H   0  0  0  0  0  0  0  0  0  0  0  0
    6.1464    3.3388    3.5372 H   0  0  0  0  0  0  0  0  0  0  0  0
    6.2372    1.8589    4.5210 H   0  0  0  0  0  0  0  0  0  0  0  0
    7.4203    3.6402    5.4314 H   0  0  0  0  0  0  0  0  0  0  0  0
    8.3623    4.9698    7.2870 H   0  0  0  0  0  0  0  0  0  0  0  0
    4.3862    5.7047    8.7844 H   0  0  0  0  0  0  0  0  0  0  0  0
    2.4646    4.7709    7.7172 H   0  0  0  0  0  0  0  0  0  0  0  0
    2.7361    3.2426    6.8311 H   0  0  0  0  0  0  0  0  0  0  0  0
    2.6165    4.7630    5.9400 H   0  0  0  0  0  0  0  0  0  0  0  0
    6.1878    0.4969    2.4071 H   0  0  0  0  0  0  0  0  0  0  0  0
    3.4659   -1.2418   -0.3879 H   0  0  0  0  0  0  0  0  0  0  0  0
  1  2  1  0
  1 22  1  0
  1 23  1  0
  1 24  1  0
  2  3  1  0
  3  4  2  0
  3 18  1  0
  4  5  1  0
  4 25  1  0
  5  6  2  0
  5 26  1  0
  6  7  1  0
  6 17  1  0
  7  8  1  0
  7 27  1  0
  7 28  1  0
  8  9  1  0
  9 10  2  0
  9 15  1  0
 10 11  1  0
 10 29  1  0
 11 12  2  0
 11 30  1  0
 12 13  1  0
 12 14  1  0
 14 15  2  0
 14 31  1  0
 15 16  1  0
 16 32  1  0
 16 33  1  0
 16 34  1  0
 17 18  2  0
 17 35  1  0
 18 19  1  0
 19 20  2  0
 19 21  1  0
 21 36  1  0
M  END

