
     RDKit          3D

 45 48  0  0  0  0  0  0  0  0999 V2000
    1.0988   -0.1367   -0.1612 C   0  0  0  0  0  0  0  0  0  0  0  0
    2.5057    0.1206    0.0834 N   0  0  0  0  0  0  0  0  0  0  0  0
    3.1337   -0.9321    0.8834 C   0  0  0  0  0  0  0  0  0  0  0  0
    4.6263   -0.6690    1.1101 C   0  0  0  0  0  0  0  0  0  0  0  0
    4.8727    0.6133    1.6728 O   0  0  0  0  0  0  0  0  0  0  0  0
    4.2872    1.5855    0.8502 C   0  0  2  0  0  0  0  0  0  0  0  0
    4.4094    3.0245    1.3385 C   0  0  0  0  0  0  0  0  0  0  0  0
    3.2816    3.6571    0.6507 N   0  0  0  0  0  0  0  0  0  0  0  0
    3.0798    5.0072    0.4763 C   0  0  0  0  0  0  0  0  0  0  0  0
    2.1756    5.4413   -0.2274 O   0  0  0  0  0  0  0  0  0  0  0  0
    3.9767    5.8330    1.1293 N   0  0  0  0  0  0  0  0  0  0  0  0
    3.8121    7.2778    1.0867 C   0  0  2  0  0  0  0  0  0  0  0  0
    5.1458    7.9742    1.4088 C   0  0  0  0  0  0  0  0  0  0  0  0
    5.0827    9.4973    1.1908 C   0  0  0  0  0  0  0  0  0  0  0  0
    3.8186   10.0590    1.7780 C   0  0  0  0  0  0  0  0  0  0  0  0
    3.3898   11.3782    2.0838 C   0  0  0  0  0  0  0  0  0  0  0  0
    2.1551   11.3924    2.5778 N   0  0  0  0  0  0  0  0  0  0  0  0
    1.7796   10.1022    2.5935 N   0  0  0  0  0  0  0  0  0  0  0  0
    0.8558    9.8582    2.9289 H   0  0  0  0  0  0  0  0  0  0  0  0
    2.7400    9.2595    2.1245 C   0  0  0  0  0  0  0  0  0  0  0  0
    2.6744    7.7696    2.0148 C   0  0  0  0  0  0  0  0  0  0  0  0
    2.3731    2.6921    0.0146 C   0  0  0  0  0  0  0  0  0  0  0  0
    2.7757    1.3957    0.7170 C   0  0  1  0  0  0  0  0  0  0  0  0
    0.9802   -1.1032   -0.6763 H   0  0  0  0  0  0  0  0  0  0  0  0
    0.6741    0.6421   -0.8125 H   0  0  0  0  0  0  0  0  0  0  0  0
    0.4915   -0.1727    0.7723 H   0  0  0  0  0  0  0  0  0  0  0  0
    3.0198   -1.8984    0.3643 H   0  0  0  0  0  0  0  0  0  0  0  0
    2.6338   -1.0311    1.8754 H   0  0  0  0  0  0  0  0  0  0  0  0
    5.1641   -0.7611    0.1455 H   0  0  0  0  0  0  0  0  0  0  0  0
    5.0375   -1.4113    1.8099 H   0  0  0  0  0  0  0  0  0  0  0  0
    4.7137    1.5147   -0.1726 H   0  0  0  0  0  0  0  0  0  0  0  0
    5.3695    3.4868    1.0571 H   0  0  0  0  0  0  0  0  0  0  0  0
    4.3168    3.0577    2.4421 H   0  0  0  0  0  0  0  0  0  0  0  0
    4.5205    5.4572    1.8975 H   0  0  0  0  0  0  0  0  0  0  0  0
    3.5214    7.5242    0.0533 H   0  0  0  0  0  0  0  0  0  0  0  0
    5.9385    7.5309    0.7855 H   0  0  0  0  0  0  0  0  0  0  0  0
    5.4114    7.7660    2.4628 H   0  0  0  0  0  0  0  0  0  0  0  0
    5.1285    9.7132    0.1072 H   0  0  0  0  0  0  0  0  0  0  0  0
    5.9735    9.9755    1.6315 H   0  0  0  0  0  0  0  0  0  0  0  0
    3.9342   12.3155    1.9626 H   0  0  0  0  0  0  0  0  0  0  0  0
    1.7109    7.4236    1.6075 H   0  0  0  0  0  0  0  0  0  0  0  0
    2.7929    7.2990    3.0098 H   0  0  0  0  0  0  0  0  0  0  0  0
    2.5417    2.6244   -1.0760 H   0  0  0  0  0  0  0  0  0  0  0  0
    1.3279    2.9924    0.1720 H   0  0  0  0  0  0  0  0  0  0  0  0
    2.3525    1.4208    1.7510 H   0  0  0  0  0  0  0  0  0  0  0  0
  1  2  1  0
  1 24  1  0
  1 25  1  0
  1 26  1  0
  2  3  1  0
  2 23  1  0
  3  4  1  0
  3 27  1  0
  3 28  1  0
  4  5  1  0
  4 29  1  0
  4 30  1  0
  5  6  1  0
  6  7  1  0
  6 23  1  0
  6 31  1  6
  7  8  1  0
  7 32  1  0
  7 33  1  0
  8  9  1  0
  8 22  1  0
  9 10  2  0
  9 11  1  0
 11 12  1  0
 11 34  1  0
 12 13  1  0
 12 21  1  0
 12 35  1  6
 13 14  1  0
 13 36  1  0
 13 37  1  0
 14 15  1  0
 14 38  1  0
 14 39  1  0
 15 16  1  0
 15 20  2  0
 16 17  2  0
 16 40  1  0
 17 18  1  0
 18 19  1  0
 18 20  1  0
 20 21  1  0
 21 41  1  0
 21 42  1  0
 22 23  1  0
 22 43  1  0
 22 44  1  0
 23 45  1  1
M  END

