
     RDKit          3D

 42 44  0  0  0  0  0  0  0  0999 V2000
    8.2311   -4.4478   -1.0341 C   0  0  0  0  0  0  0  0  0  0  0  0
    7.5179   -3.1819   -0.5589 C   0  0  0  0  0  0  0  0  0  0  0  0
    6.8520   -3.3424    0.8204 C   0  0  0  0  0  0  0  0  0  0  0  0
    6.1452   -2.0931    1.2983 C   0  0  0  0  0  0  0  0  0  0  0  0
    4.7940   -1.8611    0.9888 C   0  0  0  0  0  0  0  0  0  0  0  0
    4.1529   -0.6910    1.4030 C   0  0  0  0  0  0  0  0  0  0  0  0
    4.8526    0.2799    2.1222 C   0  0  0  0  0  0  0  0  0  0  0  0
    6.2033    0.0721    2.4448 C   0  0  0  0  0  0  0  0  0  0  0  0
    7.0106    1.0263    3.2832 C   0  0  0  0  0  0  0  0  0  0  0  0
    8.0321    0.6362    3.8206 O   0  0  0  0  0  0  0  0  0  0  0  0
    6.5226    2.4566    3.4940 C   0  0  1  0  0  0  0  0  0  0  0  0
    6.0545    3.2219    2.2837 C   0  0  0  0  0  0  0  0  0  0  0  0
    4.8362    3.9145    2.2223 C   0  0  0  0  0  0  0  0  0  0  0  0
    4.4593    4.6378    1.0901 C   0  0  0  0  0  0  0  0  0  0  0  0
    5.2937    4.6949   -0.0425 C   0  0  0  0  0  0  0  0  0  0  0  0
    4.9471    5.4502   -1.1541 N   0  0  0  0  0  0  0  0  0  0  0  0
    6.5192    3.9999    0.0119 C   0  0  0  0  0  0  0  0  0  0  0  0
    6.8852    3.2878    1.1506 C   0  0  0  0  0  0  0  0  0  0  0  0
    5.9072    2.6929    4.8705 C   0  0  0  0  0  0  0  0  0  0  0  0
    7.2761    3.2162    4.5709 C   0  0  0  0  0  0  0  0  0  0  0  0
    6.8277   -1.1185    2.0352 C   0  0  0  0  0  0  0  0  0  0  0  0
    8.6972   -4.3008   -2.0215 H   0  0  0  0  0  0  0  0  0  0  0  0
    7.5310   -5.2960   -1.1194 H   0  0  0  0  0  0  0  0  0  0  0  0
    9.0269   -4.7478   -0.3318 H   0  0  0  0  0  0  0  0  0  0  0  0
    6.7508   -2.8839   -1.2954 H   0  0  0  0  0  0  0  0  0  0  0  0
    8.2332   -2.3420   -0.5145 H   0  0  0  0  0  0  0  0  0  0  0  0
    7.6207   -3.6329    1.5571 H   0  0  0  0  0  0  0  0  0  0  0  0
    6.1327   -4.1787    0.7757 H   0  0  0  0  0  0  0  0  0  0  0  0
    4.2353   -2.6127    0.4226 H   0  0  0  0  0  0  0  0  0  0  0  0
    3.0979   -0.5344    1.1640 H   0  0  0  0  0  0  0  0  0  0  0  0
    4.3435    1.1894    2.4391 H   0  0  0  0  0  0  0  0  0  0  0  0
    4.1505    3.8876    3.0727 H   0  0  0  0  0  0  0  0  0  0  0  0
    3.5024    5.1679    1.0808 H   0  0  0  0  0  0  0  0  0  0  0  0
    3.9625    5.6603   -1.2690 H   0  0  0  0  0  0  0  0  0  0  0  0
    5.4048    5.2084   -2.0252 H   0  0  0  0  0  0  0  0  0  0  0  0
    7.1927    4.0286   -0.8497 H   0  0  0  0  0  0  0  0  0  0  0  0
    7.8480    2.7686    1.1608 H   0  0  0  0  0  0  0  0  0  0  0  0
    5.8199    1.8247    5.5301 H   0  0  0  0  0  0  0  0  0  0  0  0
    5.0764    3.3987    4.9485 H   0  0  0  0  0  0  0  0  0  0  0  0
    8.1361    2.7054    5.0089 H   0  0  0  0  0  0  0  0  0  0  0  0
    7.3884    4.2913    4.4124 H   0  0  0  0  0  0  0  0  0  0  0  0
    7.8711   -1.2703    2.3217 H   0  0  0  0  0  0  0  0  0  0  0  0
  1  2  1  0
  1 22  1  0
  1 23  1  0
  1 24  1  0
  2  3  1  0
  2 25  1  0
  2 26  1  0
  3  4  1  0
  3 27  1  0
  3 28  1  0
  4  5  2  0
  4 21  1  0
  5  6  1  0
  5 29  1  0
  6  7  2  0
  6 30  1  0
  7  8  1  0
  7 31  1  0
  8  9  1  0
  8 21  2  0
  9 10  2  0
 11  9  1  6
 11 12  1  0
 11 19  1  0
 11 20  1  0
 12 13  2  0
 12 18  1  0
 13 14  1  0
 13 32  1  0
 14 15  2  0
 14 33  1  0
 15 16  1  0
 15 17  1  0
 16 34  1  0
 16 35  1  0
 17 18  2  0
 17 36  1  0
 18 37  1  0
 19 20  1  0
 19 38  1  0
 19 39  1  0
 20 40  1  0
 20 41  1  0
 21 42  1  0
M  END

