
     RDKit          3D

 43 43  0  0  0  0  0  0  0  0999 V2000
    5.1283   -0.5652    3.5906 C   0  0  0  0  0  0  0  0  0  0  0  0
    3.9595   -1.5173    3.3104 C   0  0  1  0  0  0  0  0  0  0  0  0
    3.1882   -1.8309    4.6005 C   0  0  0  0  0  0  0  0  0  0  0  0
    2.9744   -1.0714    2.1733 C   0  0  1  0  0  0  0  0  0  0  0  0
    2.2925    0.2664    2.4890 C   0  0  0  0  0  0  0  0  0  0  0  0
    2.9587    1.3033    2.4492 O   0  0  0  0  0  0  0  0  0  0  0  0
    0.9637    0.2953    2.8245 N   0  0  0  0  0  0  0  0  0  0  0  0
    0.3383    1.5873    3.1249 C   0  0  0  0  0  0  0  0  0  0  0  0
   -0.7817    1.8968    2.1274 C   0  0  0  0  0  0  0  0  0  0  0  0
   -1.7877    0.7416    2.0429 C   0  0  0  0  0  0  0  0  0  0  0  0
   -1.1184   -0.6317    1.7872 C   0  0  2  0  0  0  0  0  0  0  0  0
   -0.5443   -0.7135    0.3611 C   0  0  0  0  0  0  0  0  0  0  0  0
   -2.1465   -1.7557    1.9871 C   0  0  0  0  0  0  0  0  0  0  0  0
    0.0154   -0.8142    2.8299 C   0  0  0  0  0  0  0  0  0  0  0  0
    3.6182   -1.0314    0.7973 C   0  0  0  0  0  0  0  0  0  0  0  0
    4.4517   -0.0020    0.4687 N   0  0  0  0  0  0  0  0  0  0  0  0
    3.3529   -2.0424    0.0350 N   0  0  0  0  0  0  0  0  0  0  0  0
    4.0343   -1.9058   -1.1977 O   0  0  0  0  0  0  0  0  0  0  0  0
    5.7931   -1.0094    4.3498 H   0  0  0  0  0  0  0  0  0  0  0  0
    4.7763    0.4062    3.9688 H   0  0  0  0  0  0  0  0  0  0  0  0
    5.7234   -0.3787    2.6861 H   0  0  0  0  0  0  0  0  0  0  0  0
    4.3820   -2.4658    2.9347 H   0  0  0  0  0  0  0  0  0  0  0  0
    2.7306   -0.9238    5.0298 H   0  0  0  0  0  0  0  0  0  0  0  0
    3.8654   -2.2471    5.3633 H   0  0  0  0  0  0  0  0  0  0  0  0
    2.3860   -2.5681    4.4325 H   0  0  0  0  0  0  0  0  0  0  0  0
    2.2447   -1.8812    2.0849 H   0  0  0  0  0  0  0  0  0  0  0  0
    1.1236    2.3510    3.1063 H   0  0  0  0  0  0  0  0  0  0  0  0
   -0.0762    1.5404    4.1499 H   0  0  0  0  0  0  0  0  0  0  0  0
   -0.3371    2.0971    1.1385 H   0  0  0  0  0  0  0  0  0  0  0  0
   -1.2936    2.8244    2.4336 H   0  0  0  0  0  0  0  0  0  0  0  0
   -2.5401    0.9400    1.2604 H   0  0  0  0  0  0  0  0  0  0  0  0
   -2.3427    0.6844    2.9975 H   0  0  0  0  0  0  0  0  0  0  0  0
   -1.3465   -0.5992   -0.3859 H   0  0  0  0  0  0  0  0  0  0  0  0
   -0.0521   -1.6834    0.1846 H   0  0  0  0  0  0  0  0  0  0  0  0
    0.2064    0.0665    0.1668 H   0  0  0  0  0  0  0  0  0  0  0  0
   -2.9879   -1.6448    1.2843 H   0  0  0  0  0  0  0  0  0  0  0  0
   -2.5617   -1.7477    3.0087 H   0  0  0  0  0  0  0  0  0  0  0  0
   -1.6957   -2.7468    1.8128 H   0  0  0  0  0  0  0  0  0  0  0  0
    0.5299   -1.7646    2.6554 H   0  0  0  0  0  0  0  0  0  0  0  0
   -0.4358   -0.8763    3.8384 H   0  0  0  0  0  0  0  0  0  0  0  0
    4.3095    0.8579    0.9940 H   0  0  0  0  0  0  0  0  0  0  0  0
    4.7075    0.0579   -0.5105 H   0  0  0  0  0  0  0  0  0  0  0  0
    3.7447   -2.6867   -1.6829 H   0  0  0  0  0  0  0  0  0  0  0  0
  1  2  1  0
  1 19  1  0
  1 20  1  0
  1 21  1  0
  2  3  1  0
  2  4  1  0
  2 22  1  6
  3 23  1  0
  3 24  1  0
  3 25  1  0
  4  5  1  0
  4 15  1  0
  4 26  1  6
  5  6  2  0
  5  7  1  0
  7  8  1  0
  7 14  1  0
  8  9  1  0
  8 27  1  0
  8 28  1  0
  9 10  1  0
  9 29  1  0
  9 30  1  0
 10 11  1  0
 10 31  1  0
 10 32  1  0
 11 12  1  6
 11 13  1  0
 11 14  1  0
 12 33  1  0
 12 34  1  0
 12 35  1  0
 13 36  1  0
 13 37  1  0
 13 38  1  0
 14 39  1  0
 14 40  1  0
 15 16  1  0
 15 17  2  0
 16 41  1  0
 16 42  1  0
 17 18  1  0
 18 43  1  0
M  END

