
     RDKit          3D

 60 63  0  0  0  0  0  0  0  0999 V2000
    3.6923   -1.4631    0.7757 C   0  0  0  0  0  0  0  0  0  0  0  0
    2.7948   -0.4136    0.0973 C   0  0  1  0  0  0  0  0  0  0  0  0
    1.3047   -0.7469    0.2861 C   0  0  0  0  0  0  0  0  0  0  0  0
    3.1249    1.0014    0.5555 C   0  0  0  0  0  0  0  0  0  0  0  0
    3.5951    1.9614   -0.3515 C   0  0  0  0  0  0  0  0  0  0  0  0
    3.9024    3.2623    0.0588 C   0  0  0  0  0  0  0  0  0  0  0  0
    3.7437    3.6541    1.3939 C   0  0  0  0  0  0  0  0  0  0  0  0
    4.0735    5.0706    1.8351 C   0  0  1  0  0  0  0  0  0  0  0  0
    2.8558    5.8276    2.3882 C   0  0  0  0  0  0  0  0  0  0  0  0
    5.1712    5.0390    2.8116 N   0  0  0  0  0  0  0  0  0  0  0  0
    5.9823    6.1281    3.0093 C   0  0  0  0  0  0  0  0  0  0  0  0
    5.7834    7.1859    2.4239 O   0  0  0  0  0  0  0  0  0  0  0  0
    7.0598    5.9129    4.0177 C   0  0  0  0  0  0  0  0  0  0  0  0
    6.8940    5.1458    5.1670 C   0  0  0  0  0  0  0  0  0  0  0  0
    8.0622    5.1817    5.8468 N   0  0  0  0  0  0  0  0  0  0  0  0
    8.3705    4.5874    7.1307 C   0  0  0  0  0  0  0  0  0  0  0  0
    8.9871    5.9164    5.2191 N   0  0  0  0  0  0  0  0  0  0  0  0
    8.4175    6.3867    4.1036 C   0  0  0  0  0  0  0  0  0  0  0  0
    9.2442    7.1993    3.1831 C   0  0  0  0  0  0  0  0  0  0  0  0
   10.6485    7.1356    3.2926 C   0  0  0  0  0  0  0  0  0  0  0  0
   11.4566    7.8990    2.4581 C   0  0  0  0  0  0  0  0  0  0  0  0
   10.9052    8.7406    1.4817 C   0  0  0  0  0  0  0  0  0  0  0  0
    9.5008    8.8107    1.3630 C   0  0  0  0  0  0  0  0  0  0  0  0
    8.6907    8.0521    2.2158 C   0  0  0  0  0  0  0  0  0  0  0  0
    8.8716    9.5424    0.3900 O   0  0  0  0  0  0  0  0  0  0  0  0
    9.1334   10.9347    0.3033 C   0  0  0  0  0  0  0  0  0  0  0  0
   10.4831   11.2547   -0.3267 C   0  0  0  0  0  0  0  0  0  0  0  0
   11.6689   10.8037    0.5158 C   0  0  0  0  0  0  0  0  0  0  0  0
   11.7695    9.3915    0.6437 O   0  0  0  0  0  0  0  0  0  0  0  0
    3.2694    2.6959    2.3064 C   0  0  0  0  0  0  0  0  0  0  0  0
    2.9701    1.3962    1.8958 C   0  0  0  0  0  0  0  0  0  0  0  0
    3.4823   -2.4705    0.3804 H   0  0  0  0  0  0  0  0  0  0  0  0
    3.5240   -1.4932    1.8650 H   0  0  0  0  0  0  0  0  0  0  0  0
    4.7590   -1.2468    0.6081 H   0  0  0  0  0  0  0  0  0  0  0  0
    3.0053   -0.4525   -0.9856 H   0  0  0  0  0  0  0  0  0  0  0  0
    1.0229   -0.7427    1.3521 H   0  0  0  0  0  0  0  0  0  0  0  0
    1.0750   -1.7483   -0.1134 H   0  0  0  0  0  0  0  0  0  0  0  0
    0.6623   -0.0176   -0.2317 H   0  0  0  0  0  0  0  0  0  0  0  0
    3.7281    1.6864   -1.4020 H   0  0  0  0  0  0  0  0  0  0  0  0
    4.2735    3.9854   -0.6730 H   0  0  0  0  0  0  0  0  0  0  0  0
    4.4390    5.6340    0.9611 H   0  0  0  0  0  0  0  0  0  0  0  0
    2.4463    5.3308    3.2820 H   0  0  0  0  0  0  0  0  0  0  0  0
    2.0612    5.8799    1.6278 H   0  0  0  0  0  0  0  0  0  0  0  0
    3.1498    6.8523    2.6568 H   0  0  0  0  0  0  0  0  0  0  0  0
    5.5082    4.1321    3.1112 H   0  0  0  0  0  0  0  0  0  0  0  0
    6.0212    4.6183    5.5464 H   0  0  0  0  0  0  0  0  0  0  0  0
    7.5316    3.9533    7.4470 H   0  0  0  0  0  0  0  0  0  0  0  0
    8.5407    5.3693    7.8870 H   0  0  0  0  0  0  0  0  0  0  0  0
    9.2798    3.9743    7.0483 H   0  0  0  0  0  0  0  0  0  0  0  0
   11.0945    6.4812    4.0421 H   0  0  0  0  0  0  0  0  0  0  0  0
   12.5456    7.8501    2.5262 H   0  0  0  0  0  0  0  0  0  0  0  0
    7.6099    8.1344    2.1008 H   0  0  0  0  0  0  0  0  0  0  0  0
    9.0586   11.3959    1.3081 H   0  0  0  0  0  0  0  0  0  0  0  0
    8.3204   11.3459   -0.3143 H   0  0  0  0  0  0  0  0  0  0  0  0
   10.5541   12.3471   -0.4779 H   0  0  0  0  0  0  0  0  0  0  0  0
   10.5415   10.7803   -1.3208 H   0  0  0  0  0  0  0  0  0  0  0  0
   11.6241   11.2679    1.5210 H   0  0  0  0  0  0  0  0  0  0  0  0
   12.6118   11.1186    0.0431 H   0  0  0  0  0  0  0  0  0  0  0  0
    3.1247    2.9684    3.3560 H   0  0  0  0  0  0  0  0  0  0  0  0
    2.6033    0.6793    2.6357 H   0  0  0  0  0  0  0  0  0  0  0  0
  1  2  1  0
  1 32  1  0
  1 33  1  0
  1 34  1  0
  2  3  1  0
  2  4  1  0
  2 35  1  6
  3 36  1  0
  3 37  1  0
  3 38  1  0
  4  5  2  0
  4 31  1  0
  5  6  1  0
  5 39  1  0
  6  7  2  0
  6 40  1  0
  7  8  1  0
  7 30  1  0
  8  9  1  0
  8 10  1  0
  8 41  1  6
  9 42  1  0
  9 43  1  0
  9 44  1  0
 10 11  1  0
 10 45  1  0
 11 12  2  0
 11 13  1  0
 13 14  2  0
 13 18  1  0
 14 15  1  0
 14 46  1  0
 15 16  1  0
 15 17  1  0
 16 47  1  0
 16 48  1  0
 16 49  1  0
 17 18  2  0
 18 19  1  0
 19 20  2  0
 19 24  1  0
 20 21  1  0
 20 50  1  0
 21 22  2  0
 21 51  1  0
 22 23  1  0
 22 29  1  0
 23 24  2  0
 23 25  1  0
 24 52  1  0
 25 26  1  0
 26 27  1  0
 26 53  1  0
 26 54  1  0
 27 28  1  0
 27 55  1  0
 27 56  1  0
 28 29  1  0
 28 57  1  0
 28 58  1  0
 30 31  2  0
 30 59  1  0
 31 60  1  0
M  END

