
     RDKit          3D

 40 43  0  0  0  0  0  0  0  0999 V2000
    0.9241   -0.0154    0.0870 C   0  0  0  0  0  0  0  0  0  0  0  0
    2.4611    0.0031   -0.0848 C   0  0  1  0  0  0  0  0  0  0  0  0
    3.1269    0.3038    1.2781 C   0  0  0  0  0  0  0  0  0  0  0  0
    2.9141   -1.3929   -0.5476 C   0  0  0  0  0  0  0  0  0  0  0  0
    2.8468    1.0996   -1.0939 C   0  0  0  0  0  0  0  0  0  0  0  0
    2.5142    2.4512   -0.8351 C   0  0  0  0  0  0  0  0  0  0  0  0
    2.8414    3.4684   -1.7163 C   0  0  0  0  0  0  0  0  0  0  0  0
    3.5277    3.2092   -2.9250 C   0  0  0  0  0  0  0  0  0  0  0  0
    3.8868    4.2670   -3.8786 C   0  0  0  0  0  0  0  0  0  0  0  0
    3.5620    5.6231   -3.6437 C   0  0  0  0  0  0  0  0  0  0  0  0
    3.9013    6.6208   -4.5452 C   0  0  0  0  0  0  0  0  0  0  0  0
    4.5850    6.2933   -5.7269 C   0  0  0  0  0  0  0  0  0  0  0  0
    4.9160    4.9715   -5.9832 C   0  0  0  0  0  0  0  0  0  0  0  0
    4.5806    3.9382   -5.0788 C   0  0  0  0  0  0  0  0  0  0  0  0
    4.9276    2.5425   -5.3449 C   0  0  0  0  0  0  0  0  0  0  0  0
    5.6141    2.0975   -6.4957 C   0  0  0  0  0  0  0  0  0  0  0  0
    5.9193    0.8276   -6.7192 N   0  0  0  0  0  0  0  0  0  0  0  0
    5.5370   -0.0484   -5.7763 C   0  0  0  0  0  0  0  0  0  0  0  0
    4.8927    0.2342   -4.6589 N   0  0  0  0  0  0  0  0  0  0  0  0
    4.5780    1.5244   -4.4228 C   0  0  0  0  0  0  0  0  0  0  0  0
    3.8661    1.8597   -3.1921 C   0  0  0  0  0  0  0  0  0  0  0  0
    3.5232    0.8371   -2.2807 C   0  0  0  0  0  0  0  0  0  0  0  0
    0.6282   -0.7927    0.8106 H   0  0  0  0  0  0  0  0  0  0  0  0
    0.4227   -0.2323   -0.8695 H   0  0  0  0  0  0  0  0  0  0  0  0
    0.5387    0.9471    0.4572 H   0  0  0  0  0  0  0  0  0  0  0  0
    2.8573   -0.4700    2.0155 H   0  0  0  0  0  0  0  0  0  0  0  0
    2.8111    1.2759    1.6871 H   0  0  0  0  0  0  0  0  0  0  0  0
    4.2246    0.3188    1.1865 H   0  0  0  0  0  0  0  0  0  0  0  0
    2.6221   -2.1467    0.2006 H   0  0  0  0  0  0  0  0  0  0  0  0
    4.0069   -1.4508   -0.6681 H   0  0  0  0  0  0  0  0  0  0  0  0
    2.4510   -1.6789   -1.5045 H   0  0  0  0  0  0  0  0  0  0  0  0
    1.9836    2.7142    0.0829 H   0  0  0  0  0  0  0  0  0  0  0  0
    2.5553    4.4877   -1.4563 H   0  0  0  0  0  0  0  0  0  0  0  0
    3.0310    5.9022   -2.7337 H   0  0  0  0  0  0  0  0  0  0  0  0
    3.6353    7.6593   -4.3332 H   0  0  0  0  0  0  0  0  0  0  0  0
    4.8558    7.0732   -6.4425 H   0  0  0  0  0  0  0  0  0  0  0  0
    5.4465    4.7332   -6.9056 H   0  0  0  0  0  0  0  0  0  0  0  0
    5.9278    2.8085   -7.2671 H   0  0  0  0  0  0  0  0  0  0  0  0
    5.7867   -1.1014   -5.9558 H   0  0  0  0  0  0  0  0  0  0  0  0
    3.8188   -0.1720   -2.5601 H   0  0  0  0  0  0  0  0  0  0  0  0
  2  1  1  1
  1 23  1  0
  1 24  1  0
  1 25  1  0
  2  3  1  0
  2  4  1  0
  2  5  1  0
  3 26  1  0
  3 27  1  0
  3 28  1  0
  4 29  1  0
  4 30  1  0
  4 31  1  0
  5  6  2  0
  5 22  1  0
  6  7  1  0
  6 32  1  0
  7  8  2  0
  7 33  1  0
  8  9  1  0
  8 21  1  0
  9 10  2  0
  9 14  1  0
 10 11  1  0
 10 34  1  0
 11 12  2  0
 11 35  1  0
 12 13  1  0
 12 36  1  0
 13 14  2  0
 13 37  1  0
 14 15  1  0
 15 16  1  0
 15 20  2  0
 16 17  2  0
 16 38  1  0
 17 18  1  0
 18 19  2  0
 18 39  1  0
 19 20  1  0
 20 21  1  0
 21 22  2  0
 22 40  1  0
M  END

