
     RDKit          3D

126153  0  0  0  0  0  0  0  0999 V2000
    1.1358   -1.2687   -3.2315 C   0  0  0  0  0  0  0  0  0  0  0  0
    0.6599   -2.3503   -2.4407 C   0  0  0  0  0  0  0  0  0  0  0  0
    0.0129   -2.0830   -1.2417 C   0  0  0  0  0  0  0  0  0  0  0  0
   -0.0652   -0.7312   -0.8256 C   0  0  0  0  0  0  0  0  0  0  0  0
   -0.5980   -0.6267    0.4875 C   0  0  0  0  0  0  0  0  0  0  0  0
   -0.9289    0.6508    0.9228 C   0  0  0  0  0  0  0  0  0  0  0  0
   -0.6248    1.7764    0.1064 C   0  0  0  0  0  0  0  0  0  0  0  0
    0.0151    1.6583   -1.1157 C   0  0  0  0  0  0  0  0  0  0  0  0
    0.3160    0.3633   -1.6263 C   0  0  0  0  0  0  0  0  0  0  0  0
    0.9468    0.0547   -2.8655 C   0  0  0  0  0  0  0  0  0  0  0  0
   -0.7531   -2.0283    0.9836 C   0  0  0  0  0  0  0  0  0  0  0  0
   -0.5849   -2.8865   -0.1458 C   0  0  0  0  0  0  0  0  0  0  0  0
   -0.9988   -4.2426   -0.0991 C   0  0  0  0  0  0  0  0  0  0  0  0
   -1.3090   -5.0445   -1.2872 C   0  0  0  0  0  0  0  0  0  0  0  0
   -1.5750   -4.4500   -2.5461 C   0  0  0  0  0  0  0  0  0  0  0  0
   -1.8714   -5.2061   -3.6681 C   0  0  0  0  0  0  0  0  0  0  0  0
   -1.9216   -6.6066   -3.5715 C   0  0  0  0  0  0  0  0  0  0  0  0
   -1.7537   -7.2084   -2.3364 C   0  0  0  0  0  0  0  0  0  0  0  0
   -1.4917   -6.4511   -1.1675 C   0  0  0  0  0  0  0  0  0  0  0  0
   -1.4922   -7.0627    0.1550 C   0  0  0  0  0  0  0  0  0  0  0  0
   -1.6930   -8.4482    0.3367 C   0  0  0  0  0  0  0  0  0  0  0  0
   -1.7161   -9.0189    1.5913 C   0  0  0  0  0  0  0  0  0  0  0  0
   -1.5384   -8.2488    2.7605 C   0  0  0  0  0  0  0  0  0  0  0  0
   -1.4951   -8.8451    4.0922 C   0  0  0  0  0  0  0  0  0  0  0  0
   -1.2260  -10.2178    4.3377 C   0  0  0  0  0  0  0  0  0  0  0  0
   -1.5085  -10.7920    5.6131 C   0  0  0  0  0  0  0  0  0  0  0  0
   -1.7264   -9.9659    6.7469 C   0  0  0  0  0  0  0  0  0  0  0  0
   -1.6202  -10.4425    8.1294 C   0  0  0  0  0  0  0  0  0  0  0  0
   -0.9318  -11.6346    8.4655 C   0  0  0  0  0  0  0  0  0  0  0  0
   -0.8568  -12.0978    9.7686 C   0  0  0  0  0  0  0  0  0  0  0  0
   -1.4717  -11.3714   10.8020 C   0  0  0  0  0  0  0  0  0  0  0  0
   -2.0630  -10.1532   10.5158 C   0  0  0  0  0  0  0  0  0  0  0  0
   -2.1057   -9.6368    9.1964 C   0  0  0  0  0  0  0  0  0  0  0  0
   -2.5210   -8.2668    8.9243 C   0  0  0  0  0  0  0  0  0  0  0  0
   -2.9369   -7.4031    9.9592 C   0  0  0  0  0  0  0  0  0  0  0  0
   -3.2094   -6.0730    9.7298 C   0  0  0  0  0  0  0  0  0  0  0  0
   -3.1038   -5.5007    8.4433 C   0  0  0  0  0  0  0  0  0  0  0  0
   -3.3143   -4.0719    8.2193 C   0  0  0  0  0  0  0  0  0  0  0  0
   -3.9258   -3.1963    9.1557 C   0  0  0  0  0  0  0  0  0  0  0  0
   -3.6574   -1.7931    9.1262 C   0  0  0  0  0  0  0  0  0  0  0  0
   -3.0728   -1.1958    7.9763 C   0  0  0  0  0  0  0  0  0  0  0  0
   -2.9884    0.2517    7.7448 C   0  0  0  0  0  0  0  0  0  0  0  0
   -3.8257    1.1799    8.4084 C   0  0  0  0  0  0  0  0  0  0  0  0
   -3.6946    2.5484    8.2291 C   0  0  0  0  0  0  0  0  0  0  0  0
   -2.7134    3.0476    7.3565 C   0  0  0  0  0  0  0  0  0  0  0  0
   -1.9563    2.1605    6.6100 C   0  0  0  0  0  0  0  0  0  0  0  0
   -2.1087    0.7589    6.7448 C   0  0  0  0  0  0  0  0  0  0  0  0
   -1.5275   -0.1602    5.7780 C   0  0  0  0  0  0  0  0  0  0  0  0
   -0.6516    0.2555    4.7503 C   0  0  0  0  0  0  0  0  0  0  0  0
   -0.4101   -0.5446    3.6508 C   0  0  0  0  0  0  0  0  0  0  0  0
   -1.0223   -1.8099    3.5093 C   0  0  0  0  0  0  0  0  0  0  0  0
   -1.0095   -2.5809    2.2700 C   0  0  0  0  0  0  0  0  0  0  0  0
   -1.2441   -3.9899    2.3571 C   0  0  0  0  0  0  0  0  0  0  0  0
   -1.2266   -4.8141    1.1870 C   0  0  0  0  0  0  0  0  0  0  0  0
   -1.4161   -6.2421    1.3108 C   0  0  0  0  0  0  0  0  0  0  0  0
   -1.5054   -6.8372    2.6104 C   0  0  0  0  0  0  0  0  0  0  0  0
   -1.6527   -5.9997    3.7643 C   0  0  0  0  0  0  0  0  0  0  0  0
   -1.5718   -4.5881    3.6299 C   0  0  0  0  0  0  0  0  0  0  0  0
   -1.8576   -3.7668    4.7530 C   0  0  0  0  0  0  0  0  0  0  0  0
   -1.6232   -2.3568    4.6753 C   0  0  0  0  0  0  0  0  0  0  0  0
   -1.9251   -1.5204    5.7935 C   0  0  0  0  0  0  0  0  0  0  0  0
   -2.6091   -2.0661    6.9422 C   0  0  0  0  0  0  0  0  0  0  0  0
   -2.7405   -3.4871    7.0533 C   0  0  0  0  0  0  0  0  0  0  0  0
   -2.3048   -4.3400    5.9739 C   0  0  0  0  0  0  0  0  0  0  0  0
   -2.3147   -5.7554    6.1171 C   0  0  0  0  0  0  0  0  0  0  0  0
   -2.6226   -6.3328    7.3946 C   0  0  0  0  0  0  0  0  0  0  0  0
   -2.3688   -7.7263    7.6197 C   0  0  0  0  0  0  0  0  0  0  0  0
   -1.9610   -8.5752    6.5210 C   0  0  0  0  0  0  0  0  0  0  0  0
   -1.8260   -8.0172    5.2085 C   0  0  0  0  0  0  0  0  0  0  0  0
   -1.9459   -6.5898    5.0268 C   0  0  0  0  0  0  0  0  0  0  0  0
   -4.1105   -1.2363   10.4351 C   0  0  0  0  0  0  0  0  0  0  0  0
   -3.8902   -0.0827   11.1772 C   0  0  0  0  0  0  0  0  0  0  0  0
   -4.5097    0.0637   12.4502 C   0  0  0  0  0  0  0  0  0  0  0  0
   -5.3537   -0.8974   12.9815 C   0  0  0  0  0  0  0  0  0  0  0  0
   -5.5613   -2.1175   12.2764 C   0  0  0  0  0  0  0  0  0  0  0  0
   -6.3805   -3.2128   12.6749 C   0  0  0  0  0  0  0  0  0  0  0  0
   -6.4513   -4.3448   11.8783 C   0  0  0  0  0  0  0  0  0  0  0  0
   -5.6771   -4.4908   10.6941 C   0  0  0  0  0  0  0  0  0  0  0  0
   -4.8416   -3.4558   10.2953 C   0  0  0  0  0  0  0  0  0  0  0  0
   -4.8735   -2.2602   11.0557 C   0  0  0  0  0  0  0  0  0  0  0  0
   -1.4799  -12.2711    5.4521 C   0  0  0  0  0  0  0  0  0  0  0  0
   -1.9325  -13.3707    6.1694 C   0  0  0  0  0  0  0  0  0  0  0  0
   -1.7330  -14.6778    5.6448 C   0  0  0  0  0  0  0  0  0  0  0  0
   -1.0716  -14.9039    4.4482 C   0  0  0  0  0  0  0  0  0  0  0  0
   -0.6307  -13.7984    3.6656 C   0  0  0  0  0  0  0  0  0  0  0  0
    0.0724  -13.8467    2.4277 C   0  0  0  0  0  0  0  0  0  0  0  0
    0.4269  -12.6663    1.7952 C   0  0  0  0  0  0  0  0  0  0  0  0
    0.0504  -11.3890    2.2967 C   0  0  0  0  0  0  0  0  0  0  0  0
   -0.6767  -11.3039    3.4772 C   0  0  0  0  0  0  0  0  0  0  0  0
   -0.9177  -12.5165    4.1737 C   0  0  0  0  0  0  0  0  0  0  0  0
    1.6445   -1.4969   -4.1717 H   0  0  0  0  0  0  0  0  0  0  0  0
    0.8055   -3.3696   -2.7998 H   0  0  0  0  0  0  0  0  0  0  0  0
   -1.4232    0.8254    1.8770 H   0  0  0  0  0  0  0  0  0  0  0  0
   -0.8924    2.7693    0.4771 H   0  0  0  0  0  0  0  0  0  0  0  0
    0.2693    2.5483   -1.6975 H   0  0  0  0  0  0  0  0  0  0  0  0
    1.2863    0.8627   -3.5192 H   0  0  0  0  0  0  0  0  0  0  0  0
   -1.5849   -3.3670   -2.6308 H   0  0  0  0  0  0  0  0  0  0  0  0
   -2.0787   -4.7091   -4.6191 H   0  0  0  0  0  0  0  0  0  0  0  0
   -2.1322   -7.2165   -4.4535 H   0  0  0  0  0  0  0  0  0  0  0  0
   -1.8564   -8.2908   -2.2684 H   0  0  0  0  0  0  0  0  0  0  0  0
   -1.8497   -9.0968   -0.5242 H   0  0  0  0  0  0  0  0  0  0  0  0
   -1.9163  -10.0829    1.6756 H   0  0  0  0  0  0  0  0  0  0  0  0
   -0.4140  -12.1861    7.6859 H   0  0  0  0  0  0  0  0  0  0  0  0
   -0.3098  -13.0181    9.9881 H   0  0  0  0  0  0  0  0  0  0  0  0
   -1.4450  -11.7387   11.8308 H   0  0  0  0  0  0  0  0  0  0  0  0
   -2.4733   -9.5703   11.3396 H   0  0  0  0  0  0  0  0  0  0  0  0
   -3.0124   -7.7702   10.9817 H   0  0  0  0  0  0  0  0  0  0  0  0
   -3.4543   -5.4448   10.5801 H   0  0  0  0  0  0  0  0  0  0  0  0
   -4.6214    0.8105    9.0491 H   0  0  0  0  0  0  0  0  0  0  0  0
   -4.3658    3.2320    8.7551 H   0  0  0  0  0  0  0  0  0  0  0  0
   -2.5851    4.1248    7.2240 H   0  0  0  0  0  0  0  0  0  0  0  0
   -1.2659    2.5568    5.8650 H   0  0  0  0  0  0  0  0  0  0  0  0
   -0.1785    1.2371    4.7971 H   0  0  0  0  0  0  0  0  0  0  0  0
    0.2679   -0.1908    2.8789 H   0  0  0  0  0  0  0  0  0  0  0  0
   -3.2531    0.7233   10.8148 H   0  0  0  0  0  0  0  0  0  0  0  0
   -4.3236    0.9825   13.0124 H   0  0  0  0  0  0  0  0  0  0  0  0
   -5.8441   -0.7327   13.9447 H   0  0  0  0  0  0  0  0  0  0  0  0
   -6.9573   -3.1524   13.6017 H   0  0  0  0  0  0  0  0  0  0  0  0
   -7.1042   -5.1692   12.1765 H   0  0  0  0  0  0  0  0  0  0  0  0
   -5.7511   -5.4203   10.1282 H   0  0  0  0  0  0  0  0  0  0  0  0
   -2.4319  -13.2631    7.1325 H   0  0  0  0  0  0  0  0  0  0  0  0
   -2.0959  -15.5301    6.2250 H   0  0  0  0  0  0  0  0  0  0  0  0
   -0.8980  -15.9245    4.0966 H   0  0  0  0  0  0  0  0  0  0  0  0
    0.3430  -14.8118    1.9910 H   0  0  0  0  0  0  0  0  0  0  0  0
    0.9970  -12.7085    0.8635 H   0  0  0  0  0  0  0  0  0  0  0  0
    0.3420  -10.5022    1.7343 H   0  0  0  0  0  0  0  0  0  0  0  0
  1  2  2  0
  1 10  1  0
  1 91  1  0
  2  3  1  0
  2 92  1  0
  3  4  2  0
  3 12  1  0
  4  5  1  0
  4  9  1  0
  5  6  2  0
  5 11  1  0
  6  7  1  0
  6 93  1  0
  7  8  2  0
  7 94  1  0
  8  9  1  0
  8 95  1  0
  9 10  2  0
 10 96  1  0
 11 12  2  0
 11 52  1  0
 12 13  1  0
 13 14  2  0
 13 54  1  0
 14 15  1  0
 14 19  1  0
 15 16  2  0
 15 97  1  0
 16 17  1  0
 16 98  1  0
 17 18  2  0
 17 99  1  0
 18 19  1  0
 18100  1  0
 19 20  2  0
 20 21  1  0
 20 55  1  0
 21 22  2  0
 21101  1  0
 22 23  1  0
 22102  1  0
 23 24  2  0
 23 56  1  0
 24 25  1  0
 24 69  1  0
 25 26  2  0
 25 89  1  0
 26 27  1  0
 26 81  1  0
 27 28  2  0
 27 68  1  0
 28 29  1  0
 28 33  1  0
 29 30  2  0
 29103  1  0
 30 31  1  0
 30104  1  0
 31 32  2  0
 31105  1  0
 32 33  1  0
 32106  1  0
 33 34  2  0
 34 35  1  0
 34 67  1  0
 35 36  2  0
 35107  1  0
 36 37  1  0
 36108  1  0
 37 38  2  0
 37 66  1  0
 38 39  1  0
 38 63  1  0
 39 40  2  0
 39 79  1  0
 40 41  1  0
 40 71  1  0
 41 42  1  0
 41 62  2  0
 42 43  1  0
 42 47  2  0
 43 44  2  0
 43109  1  0
 44 45  1  0
 44110  1  0
 45 46  2  0
 45111  1  0
 46 47  1  0
 46112  1  0
 47 48  1  0
 48 49  1  0
 48 61  2  0
 49 50  2  0
 49113  1  0
 50 51  1  0
 50114  1  0
 51 52  2  0
 51 60  1  0
 52 53  1  0
 53 54  2  0
 53 58  1  0
 54 55  1  0
 55 56  2  0
 56 57  1  0
 57 58  2  0
 57 70  1  0
 58 59  1  0
 59 60  2  0
 59 64  1  0
 60 61  1  0
 61 62  1  0
 62 63  1  0
 63 64  2  0
 64 65  1  0
 65 66  1  0
 65 70  2  0
 66 67  2  0
 67 68  1  0
 68 69  2  0
 69 70  1  0
 71 72  2  0
 71 80  1  0
 72 73  1  0
 72115  1  0
 73 74  2  0
 73116  1  0
 74 75  1  0
 74117  1  0
 75 76  1  0
 75 80  2  0
 76 77  2  0
 76118  1  0
 77 78  1  0
 77119  1  0
 78 79  2  0
 78120  1  0
 79 80  1  0
 81 82  2  0
 81 90  1  0
 82 83  1  0
 82121  1  0
 83 84  2  0
 83122  1  0
 84 85  1  0
 84123  1  0
 85 86  1  0
 85 90  2  0
 86 87  2  0
 86124  1  0
 87 88  1  0
 87125  1  0
 88 89  2  0
 88126  1  0
 89 90  1  0
M  END

