
     RDKit          3D

 30 29  0  0  0  0  0  0  0  0999 V2000
    2.5679    5.0202   -1.5297 C   0  0  0  0  0  0  0  0  0  0  0  0
    3.0327    3.8802   -2.0417 C   0  0  0  0  0  0  0  0  0  0  0  0
    3.4580    3.7749   -3.7510 Cl  0  0  0  0  0  0  0  0  0  0  0  0
    3.2510    2.5911   -1.2867 C   0  0  0  0  0  0  0  0  0  0  0  0
    4.6308    2.1591   -1.2741 N   0  0  0  0  0  0  0  0  0  0  0  0
    5.4165    2.2377   -0.1674 C   0  0  0  0  0  0  0  0  0  0  0  0
    5.0221    2.5999    0.9323 O   0  0  0  0  0  0  0  0  0  0  0  0
    6.8878    1.8570   -0.4131 C   0  0  1  0  0  0  0  0  0  0  0  0
    7.2105    1.3407    0.5093 H   0  0  0  0  0  0  0  0  0  0  0  0
    7.0133    1.0230   -1.6125 N   0  0  0  0  0  0  0  0  0  0  0  0
    7.7510    3.1225   -0.5975 C   0  0  0  0  0  0  0  0  0  0  0  0
    7.7497    4.1679    0.5332 C   0  0  1  0  0  0  0  0  0  0  0  0
    8.1643    3.5808    1.8883 C   0  0  0  0  0  0  0  0  0  0  0  0
    8.6482    5.3484    0.1399 C   0  0  0  0  0  0  0  0  0  0  0  0
    2.4252    5.9130   -2.1412 H   0  0  0  0  0  0  0  0  0  0  0  0
    2.3218    5.0726   -0.4662 H   0  0  0  0  0  0  0  0  0  0  0  0
    2.6155    1.8045   -1.7311 H   0  0  0  0  0  0  0  0  0  0  0  0
    2.9473    2.7337   -0.2400 H   0  0  0  0  0  0  0  0  0  0  0  0
    5.0981    1.8517   -2.1255 H   0  0  0  0  0  0  0  0  0  0  0  0
    6.7647    0.0544   -1.4113 H   0  0  0  0  0  0  0  0  0  0  0  0
    7.9755    1.0163   -1.9489 H   0  0  0  0  0  0  0  0  0  0  0  0
    7.4367    3.6049   -1.5399 H   0  0  0  0  0  0  0  0  0  0  0  0
    8.7928    2.7819   -0.7574 H   0  0  0  0  0  0  0  0  0  0  0  0
    6.7196    4.5469    0.6428 H   0  0  0  0  0  0  0  0  0  0  0  0
    9.1506    3.0865    1.8283 H   0  0  0  0  0  0  0  0  0  0  0  0
    7.4245    2.8511    2.2473 H   0  0  0  0  0  0  0  0  0  0  0  0
    8.2393    4.3746    2.6493 H   0  0  0  0  0  0  0  0  0  0  0  0
    9.7009    5.0316    0.0352 H   0  0  0  0  0  0  0  0  0  0  0  0
    8.6160    6.1426    0.9029 H   0  0  0  0  0  0  0  0  0  0  0  0
    8.3382    5.7930   -0.8201 H   0  0  0  0  0  0  0  0  0  0  0  0
  1  2  2  0
  1 15  1  0
  1 16  1  0
  2  3  1  0
  2  4  1  0
  4  5  1  0
  4 17  1  0
  4 18  1  0
  5  6  1  0
  5 19  1  0
  6  7  2  0
  6  8  1  0
  8  9  1  1
  8 10  1  0
  8 11  1  0
 10 20  1  0
 10 21  1  0
 11 12  1  0
 11 22  1  0
 11 23  1  0
 12 13  1  0
 12 14  1  0
 12 24  1  1
 13 25  1  0
 13 26  1  0
 13 27  1  0
 14 28  1  0
 14 29  1  0
 14 30  1  0
M  END

