
     RDKit          3D

 56 57  0  0  0  0  0  0  0  0999 V2000
    4.5874    1.8186   -3.1921 C   0  0  0  0  0  0  0  0  0  0  0  0
    3.3960    1.4987   -2.2882 C   0  0  0  0  0  0  0  0  0  0  0  0
    3.6869    0.4263   -1.2214 C   0  0  0  0  0  0  0  0  0  0  0  0
    4.7064    0.7138   -0.2211 N   0  0  0  0  0  0  0  0  0  0  0  0
    4.4080    1.6734    0.8450 C   0  0  1  0  0  0  0  0  0  0  0  0
    4.3259    0.9371    2.2221 C   0  0  2  0  0  0  0  0  0  0  0  0
    3.3172   -0.2274    2.2195 C   0  0  0  0  0  0  0  0  0  0  0  0
    1.8801    0.2559    2.3876 C   0  0  0  0  0  0  0  0  0  0  0  0
    1.7158    1.0185    3.5692 O   0  0  0  0  0  0  0  0  0  0  0  0
    2.5464    2.1843    3.6789 C   0  0  2  0  0  0  0  0  0  0  0  0
    2.2759    2.7318    5.0900 C   0  0  0  0  0  0  0  0  0  0  0  0
    0.8744    3.3639    5.0110 C   0  0  0  0  0  0  0  0  0  0  0  0
    0.7020    3.7990    3.5274 C   0  0  0  0  0  0  0  0  0  0  0  0
    1.9799    3.3252    2.7983 C   0  0  0  0  0  0  0  0  0  0  0  0
    4.0255    1.8085    3.4658 C   0  0  0  0  0  0  0  0  0  0  0  0
    5.4253    2.8495    0.8551 C   0  0  1  0  0  0  0  0  0  0  0  0
    6.8858    2.4449    1.0837 C   0  0  0  0  0  0  0  0  0  0  0  0
    7.8382    3.6396    1.1998 C   0  0  0  0  0  0  0  0  0  0  0  0
    9.2987    3.2314    1.3949 C   0  0  0  0  0  0  0  0  0  0  0  0
    5.3726    3.5641   -0.3778 O   0  0  0  0  0  0  0  0  0  0  0  0
    4.4608    4.6312   -0.4264 C   0  0  0  0  0  0  0  0  0  0  0  0
    4.3130    2.5421   -3.9767 H   0  0  0  0  0  0  0  0  0  0  0  0
    4.9624    0.9111   -3.6965 H   0  0  0  0  0  0  0  0  0  0  0  0
    5.4115    2.2608   -2.6118 H   0  0  0  0  0  0  0  0  0  0  0  0
    2.5507    1.1367   -2.9019 H   0  0  0  0  0  0  0  0  0  0  0  0
    3.0409    2.4231   -1.8007 H   0  0  0  0  0  0  0  0  0  0  0  0
    3.9831   -0.5048   -1.7409 H   0  0  0  0  0  0  0  0  0  0  0  0
    2.7477    0.1831   -0.6963 H   0  0  0  0  0  0  0  0  0  0  0  0
    5.5987    0.9100   -0.6632 H   0  0  0  0  0  0  0  0  0  0  0  0
    3.4278    2.1386    0.6404 H   0  0  0  0  0  0  0  0  0  0  0  0
    5.3226    0.4882    2.3656 H   0  0  0  0  0  0  0  0  0  0  0  0
    3.5498   -0.8958    3.0666 H   0  0  0  0  0  0  0  0  0  0  0  0
    3.4285   -0.8241    1.3022 H   0  0  0  0  0  0  0  0  0  0  0  0
    1.1900   -0.5974    2.4821 H   0  0  0  0  0  0  0  0  0  0  0  0
    1.5529    0.8321    1.4978 H   0  0  0  0  0  0  0  0  0  0  0  0
    3.0400    3.4922    5.3248 H   0  0  0  0  0  0  0  0  0  0  0  0
    2.3545    1.9307    5.8403 H   0  0  0  0  0  0  0  0  0  0  0  0
    0.7604    4.2041    5.7133 H   0  0  0  0  0  0  0  0  0  0  0  0
    0.1141    2.6151    5.2759 H   0  0  0  0  0  0  0  0  0  0  0  0
    0.5623    4.8863    3.4230 H   0  0  0  0  0  0  0  0  0  0  0  0
   -0.1887    3.3239    3.0901 H   0  0  0  0  0  0  0  0  0  0  0  0
    2.7250    4.1368    2.7503 H   0  0  0  0  0  0  0  0  0  0  0  0
    1.7819    3.0135    1.7624 H   0  0  0  0  0  0  0  0  0  0  0  0
    4.3269    1.2189    4.3485 H   0  0  0  0  0  0  0  0  0  0  0  0
    4.6385    2.7227    3.4921 H   0  0  0  0  0  0  0  0  0  0  0  0
    5.1381    3.5416    1.6675 H   0  0  0  0  0  0  0  0  0  0  0  0
    7.2214    1.7991    0.2527 H   0  0  0  0  0  0  0  0  0  0  0  0
    6.9523    1.8305    1.9965 H   0  0  0  0  0  0  0  0  0  0  0  0
    7.5175    4.2778    2.0439 H   0  0  0  0  0  0  0  0  0  0  0  0
    7.7382    4.2579    0.2932 H   0  0  0  0  0  0  0  0  0  0  0  0
    9.4329    2.6314    2.3109 H   0  0  0  0  0  0  0  0  0  0  0  0
    9.9562    4.1117    1.4756 H   0  0  0  0  0  0  0  0  0  0  0  0
    9.6611    2.6236    0.5487 H   0  0  0  0  0  0  0  0  0  0  0  0
    4.5115    5.0660   -1.4356 H   0  0  0  0  0  0  0  0  0  0  0  0
    4.7126    5.4207    0.3094 H   0  0  0  0  0  0  0  0  0  0  0  0
    3.4166    4.3136   -0.2409 H   0  0  0  0  0  0  0  0  0  0  0  0
  1  2  1  0
  1 22  1  0
  1 23  1  0
  1 24  1  0
  2  3  1  0
  2 25  1  0
  2 26  1  0
  3  4  1  0
  3 27  1  0
  3 28  1  0
  4  5  1  0
  4 29  1  0
  5  6  1  0
  5 16  1  0
  5 30  1  6
  6  7  1  0
  6 15  1  0
  6 31  1  1
  7  8  1  0
  7 32  1  0
  7 33  1  0
  8  9  1  0
  8 34  1  0
  8 35  1  0
 10  9  1  1
 10 11  1  0
 10 14  1  0
 10 15  1  0
 11 12  1  0
 11 36  1  0
 11 37  1  0
 12 13  1  0
 12 38  1  0
 12 39  1  0
 13 14  1  0
 13 40  1  0
 13 41  1  0
 14 42  1  0
 14 43  1  0
 15 44  1  0
 15 45  1  0
 16 17  1  0
 16 20  1  0
 16 46  1  1
 17 18  1  0
 17 47  1  0
 17 48  1  0
 18 19  1  0
 18 49  1  0
 18 50  1  0
 19 51  1  0
 19 52  1  0
 19 53  1  0
 20 21  1  0
 21 54  1  0
 21 55  1  0
 21 56  1  0
M  END

