
     RDKit          3D

 45 46  0  0  0  0  0  0  0  0999 V2000
    3.3853   -0.0352    3.0863 O   0  0  0  0  0  0  0  0  0  0  0  0
    3.5540    0.0823    1.8768 C   0  0  0  0  0  0  0  0  0  0  0  0
    2.6193    0.9288    1.0095 C   0  0  0  0  0  0  0  0  0  0  0  0
    1.6496    1.7600    1.8584 C   0  0  0  0  0  0  0  0  0  0  0  0
    2.3316    2.5957    2.8299 N   0  0  0  0  0  0  0  0  0  0  0  0
    2.8464    3.8142    2.4591 C   0  0  0  0  0  0  0  0  0  0  0  0
    2.5562    4.3758    1.4144 O   0  0  0  0  0  0  0  0  0  0  0  0
    3.7153    4.3408    3.4163 N   0  0  0  0  0  0  0  0  0  0  0  0
    4.4835    5.4972    3.3446 C   0  0  0  0  0  0  0  0  0  0  0  0
    4.2993    6.4834    2.3527 C   0  0  0  0  0  0  0  0  0  0  0  0
    5.0972    7.6253    2.3375 C   0  0  0  0  0  0  0  0  0  0  0  0
    6.0937    7.8335    3.2976 C   0  0  0  0  0  0  0  0  0  0  0  0
    6.2868    6.8707    4.2856 C   0  0  0  0  0  0  0  0  0  0  0  0
    5.5026    5.7093    4.3140 C   0  0  0  0  0  0  0  0  0  0  0  0
    5.7698    4.5290    5.6371 S   0  0  0  0  0  0  0  0  0  0  0  0
    6.9910    3.4170    4.8377 C   0  0  1  0  0  0  0  0  0  0  0  0
    6.4979    2.8087    3.7444 F   0  0  0  0  0  0  0  0  0  0  0  0
    8.1002    4.0565    4.4622 F   0  0  0  0  0  0  0  0  0  0  0  0
    7.3232    2.4729    5.7213 F   0  0  0  0  0  0  0  0  0  0  0  0
    4.5805   -0.5170    1.2139 N   0  0  0  0  0  0  0  0  0  0  0  0
    5.6221   -1.2843    1.8717 C   0  0  1  0  0  0  0  0  0  0  0  0
    5.9478   -2.6244    1.1821 C   0  0  0  0  0  0  0  0  0  0  0  0
    7.3744   -2.9952    1.6659 C   0  0  0  0  0  0  0  0  0  0  0  0
    7.9236   -1.7292    2.3862 C   0  0  0  0  0  0  0  0  0  0  0  0
    6.9926   -0.5881    1.9562 C   0  0  0  0  0  0  0  0  0  0  0  0
    2.0543    0.2601    0.3355 H   0  0  0  0  0  0  0  0  0  0  0  0
    3.2158    1.5956    0.3636 H   0  0  0  0  0  0  0  0  0  0  0  0
    0.9672    1.0920    2.4041 H   0  0  0  0  0  0  0  0  0  0  0  0
    1.0520    2.4105    1.2062 H   0  0  0  0  0  0  0  0  0  0  0  0
    2.7922    2.0627    3.5630 H   0  0  0  0  0  0  0  0  0  0  0  0
    3.9224    3.7596    4.2238 H   0  0  0  0  0  0  0  0  0  0  0  0
    3.5276    6.3225    1.6035 H   0  0  0  0  0  0  0  0  0  0  0  0
    4.9303    8.3717    1.5561 H   0  0  0  0  0  0  0  0  0  0  0  0
    6.7105    8.7344    3.2784 H   0  0  0  0  0  0  0  0  0  0  0  0
    7.0553    7.0021    5.0498 H   0  0  0  0  0  0  0  0  0  0  0  0
    4.6824   -0.3334    0.2214 H   0  0  0  0  0  0  0  0  0  0  0  0
    5.2533   -1.4633    2.8930 H   0  0  0  0  0  0  0  0  0  0  0  0
    5.9409   -2.4730    0.0880 H   0  0  0  0  0  0  0  0  0  0  0  0
    5.1956   -3.3978    1.3995 H   0  0  0  0  0  0  0  0  0  0  0  0
    8.0114   -3.2803    0.8145 H   0  0  0  0  0  0  0  0  0  0  0  0
    7.3614   -3.8614    2.3449 H   0  0  0  0  0  0  0  0  0  0  0  0
    8.9812   -1.5309    2.1556 H   0  0  0  0  0  0  0  0  0  0  0  0
    7.8570   -1.8599    3.4788 H   0  0  0  0  0  0  0  0  0  0  0  0
    7.2718   -0.2121    0.9542 H   0  0  0  0  0  0  0  0  0  0  0  0
    6.9907    0.2723    2.6425 H   0  0  0  0  0  0  0  0  0  0  0  0
  1  2  2  0
  2  3  1  0
  2 20  1  0
  3  4  1  0
  3 26  1  0
  3 27  1  0
  4  5  1  0
  4 28  1  0
  4 29  1  0
  5  6  1  0
  5 30  1  0
  6  7  2  0
  6  8  1  0
  8  9  1  0
  8 31  1  0
  9 10  2  0
  9 14  1  0
 10 11  1  0
 10 32  1  0
 11 12  2  0
 11 33  1  0
 12 13  1  0
 12 34  1  0
 13 14  2  0
 13 35  1  0
 14 15  1  0
 15 16  1  0
 16 17  1  6
 16 18  1  0
 16 19  1  0
 20 21  1  0
 20 36  1  0
 21 22  1  0
 21 25  1  0
 21 37  1  1
 22 23  1  0
 22 38  1  0
 22 39  1  0
 23 24  1  0
 23 40  1  0
 23 41  1  0
 24 25  1  0
 24 42  1  0
 24 43  1  0
 25 44  1  0
 25 45  1  0
M  END

