
     RDKit          3D

 42 44  0  0  0  0  0  0  0  0999 V2000
    3.0435   -2.5123   -2.5362 C   0  0  0  0  0  0  0  0  0  0  0  0
    3.3165   -2.4203   -1.1641 O   0  0  0  0  0  0  0  0  0  0  0  0
    4.1245   -1.3227   -0.8155 C   0  0  0  0  0  0  0  0  0  0  0  0
    4.4217   -1.3923    0.6664 C   0  0  2  0  0  0  0  0  0  0  0  0
    3.4767   -1.5478    1.2140 H   0  0  0  0  0  0  0  0  0  0  0  0
    5.2350   -0.2551    1.3322 C   0  0  1  0  0  0  0  0  0  0  0  0
    5.9339    0.1999    0.6157 H   0  0  0  0  0  0  0  0  0  0  0  0
    4.4663    0.8136    1.9434 N   0  0  0  0  0  0  0  0  0  0  0  0
    5.2196    2.2277    2.4524 S   0  0  1  0  0  0  0  0  0  0  0  0
    4.5234    2.6268    3.6788 O   0  0  0  0  0  0  0  0  0  0  0  0
    6.6728    2.0439    2.3916 O   0  0  0  0  0  0  0  0  0  0  0  0
    4.7946    3.4327    1.1850 C   0  0  0  0  0  0  0  0  0  0  0  0
    5.6910    3.6989    0.1488 C   0  0  0  0  0  0  0  0  0  0  0  0
    5.3306    4.6259   -0.8360 C   0  0  0  0  0  0  0  0  0  0  0  0
    4.1008    5.2792   -0.7699 C   0  0  0  0  0  0  0  0  0  0  0  0
    3.2207    5.0368    0.2988 C   0  0  0  0  0  0  0  0  0  0  0  0
    1.9120    5.7839    0.3144 C   0  0  0  0  0  0  0  0  0  0  0  0
    1.4479    6.3011   -0.6662 O   0  0  0  0  0  0  0  0  0  0  0  0
    1.2679    5.8520    1.4989 O   0  0  0  0  0  0  0  0  0  0  0  0
    3.5703    4.0987    1.2777 C   0  0  0  0  0  0  0  0  0  0  0  0
    5.9771   -1.3182    2.2065 C   0  0  2  0  0  0  0  0  0  0  0  0
    5.5470   -1.3889    3.2164 H   0  0  0  0  0  0  0  0  0  0  0  0
    7.5107   -1.3712    2.1541 C   0  0  0  0  0  0  0  0  0  0  0  0
    7.7712   -2.4212    1.0451 C   0  0  0  0  0  0  0  0  0  0  0  0
    6.5620   -2.5339    0.3022 O   0  0  0  0  0  0  0  0  0  0  0  0
    5.4775   -2.3886    1.1990 C   0  0  2  0  0  0  0  0  0  0  0  0
    5.1211   -3.3657    1.5711 H   0  0  0  0  0  0  0  0  0  0  0  0
    2.4132   -3.3994   -2.6962 H   0  0  0  0  0  0  0  0  0  0  0  0
    3.9685   -2.6238   -3.1378 H   0  0  0  0  0  0  0  0  0  0  0  0
    2.4992   -1.6218   -2.9134 H   0  0  0  0  0  0  0  0  0  0  0  0
    3.6104   -0.3642   -1.0471 H   0  0  0  0  0  0  0  0  0  0  0  0
    5.0771   -1.3367   -1.3821 H   0  0  0  0  0  0  0  0  0  0  0  0
    3.7784    0.5354    2.6426 H   0  0  0  0  0  0  0  0  0  0  0  0
    6.6577    3.1930    0.1274 H   0  0  0  0  0  0  0  0  0  0  0  0
    6.0195    4.8400   -1.6563 H   0  0  0  0  0  0  0  0  0  0  0  0
    3.7979    5.9966   -1.5348 H   0  0  0  0  0  0  0  0  0  0  0  0
    1.8242    5.5212    2.2182 H   0  0  0  0  0  0  0  0  0  0  0  0
    2.9104    3.8574    2.1146 H   0  0  0  0  0  0  0  0  0  0  0  0
    7.9501   -1.6808    3.1142 H   0  0  0  0  0  0  0  0  0  0  0  0
    7.9277   -0.3837    1.9065 H   0  0  0  0  0  0  0  0  0  0  0  0
    8.0397   -3.3997    1.4907 H   0  0  0  0  0  0  0  0  0  0  0  0
    8.5701   -2.1397    0.3426 H   0  0  0  0  0  0  0  0  0  0  0  0
  1  2  1  0
  1 28  1  0
  1 29  1  0
  1 30  1  0
  2  3  1  0
  3  4  1  0
  3 31  1  0
  3 32  1  0
  4  5  1  1
  4  6  1  0
  4 26  1  0
  6  7  1  6
  6  8  1  0
  6 21  1  0
  9  8  1  6
  8 33  1  0
  9 10  2  0
  9 11  2  0
  9 12  1  0
 12 13  2  0
 12 20  1  0
 13 14  1  0
 13 34  1  0
 14 15  2  0
 14 35  1  0
 15 16  1  0
 15 36  1  0
 16 17  1  0
 16 20  2  0
 17 18  2  0
 17 19  1  0
 19 37  1  0
 20 38  1  0
 21 22  1  1
 21 23  1  0
 21 26  1  0
 23 24  1  0
 23 39  1  0
 23 40  1  0
 24 25  1  0
 24 41  1  0
 24 42  1  0
 25 26  1  0
 26 27  1  1
M  END

