
     RDKit          3D

 37 38  0  0  0  0  0  0  0  0999 V2000
    2.0624    1.6293    0.3052 C   0  0  0  0  0  0  0  0  0  0  0  0
    2.3467    0.1850   -0.0860 C   0  0  0  0  0  0  0  0  0  0  0  0
    1.9391   -0.7413    0.5959 O   0  0  0  0  0  0  0  0  0  0  0  0
    3.0757   -0.0306   -1.2382 N   0  0  0  0  0  0  0  0  0  0  0  0
    3.4163   -1.3987   -1.6237 C   0  0  0  0  0  0  0  0  0  0  0  0
    3.0693   -1.6389   -3.0987 C   0  0  0  0  0  0  0  0  0  0  0  0
    3.6496   -0.6396   -4.0031 N   0  0  0  0  0  0  0  0  0  0  0  0
    5.0560   -0.8347   -4.3216 C   0  0  0  0  0  0  0  0  0  0  0  0
    5.3486   -2.1390   -5.0766 C   0  0  0  0  0  0  0  0  0  0  0  0
    6.1733   -2.9115   -4.6295 O   0  0  0  0  0  0  0  0  0  0  0  0
    4.6676   -2.4310   -6.3876 C   0  0  0  0  0  0  0  0  0  0  0  0
    3.7094   -1.5829   -6.9696 C   0  0  0  0  0  0  0  0  0  0  0  0
    3.1487   -1.8949   -8.2066 C   0  0  0  0  0  0  0  0  0  0  0  0
    3.5367   -3.0676   -8.8804 C   0  0  0  0  0  0  0  0  0  0  0  0
    2.9583   -3.3899  -10.1556 C   0  0  0  0  0  0  0  0  0  0  0  0
    2.4910   -3.6491  -11.1865 N   0  0  0  0  0  0  0  0  0  0  0  0
    4.4921   -3.9250   -8.2990 C   0  0  0  0  0  0  0  0  0  0  0  0
    5.0473   -3.6036   -7.0659 C   0  0  0  0  0  0  0  0  0  0  0  0
    3.2962    0.7093   -3.5691 C   0  0  0  0  0  0  0  0  0  0  0  0
    3.6459    0.9978   -2.0973 C   0  0  0  0  0  0  0  0  0  0  0  0
    1.4940    1.6058    1.2424 H   0  0  0  0  0  0  0  0  0  0  0  0
    1.4664    2.1537   -0.4587 H   0  0  0  0  0  0  0  0  0  0  0  0
    2.9896    2.2031    0.4624 H   0  0  0  0  0  0  0  0  0  0  0  0
    2.8569   -2.0770   -0.9674 H   0  0  0  0  0  0  0  0  0  0  0  0
    4.4947   -1.5769   -1.4482 H   0  0  0  0  0  0  0  0  0  0  0  0
    1.9722   -1.6056   -3.2166 H   0  0  0  0  0  0  0  0  0  0  0  0
    3.3970   -2.6456   -3.4012 H   0  0  0  0  0  0  0  0  0  0  0  0
    5.7393   -0.8499   -3.4495 H   0  0  0  0  0  0  0  0  0  0  0  0
    5.3783    0.0003   -4.9695 H   0  0  0  0  0  0  0  0  0  0  0  0
    3.3801   -0.6937   -6.4333 H   0  0  0  0  0  0  0  0  0  0  0  0
    2.4036   -1.2363   -8.6567 H   0  0  0  0  0  0  0  0  0  0  0  0
    4.7909   -4.8349   -8.8229 H   0  0  0  0  0  0  0  0  0  0  0  0
    5.7933   -4.2502   -6.6003 H   0  0  0  0  0  0  0  0  0  0  0  0
    2.2055    0.8340   -3.6937 H   0  0  0  0  0  0  0  0  0  0  0  0
    3.7908    1.4457   -4.2233 H   0  0  0  0  0  0  0  0  0  0  0  0
    3.2625    1.9868   -1.8190 H   0  0  0  0  0  0  0  0  0  0  0  0
    4.7466    1.0299   -1.9696 H   0  0  0  0  0  0  0  0  0  0  0  0
  1  2  1  0
  1 21  1  0
  1 22  1  0
  1 23  1  0
  2  3  2  0
  2  4  1  0
  4  5  1  0
  4 20  1  0
  5  6  1  0
  5 24  1  0
  5 25  1  0
  6  7  1  0
  6 26  1  0
  6 27  1  0
  7  8  1  0
  7 19  1  0
  8  9  1  0
  8 28  1  0
  8 29  1  0
  9 10  2  0
  9 11  1  0
 11 12  2  0
 11 18  1  0
 12 13  1  0
 12 30  1  0
 13 14  2  0
 13 31  1  0
 14 15  1  0
 14 17  1  0
 15 16  3  0
 17 18  2  0
 17 32  1  0
 18 33  1  0
 19 20  1  0
 19 34  1  0
 19 35  1  0
 20 36  1  0
 20 37  1  0
M  END

