
     RDKit          3D

 19 18  0  0  0  0  0  0  0  0999 V2000
    3.6007    1.5563    1.4989 C   0  0  0  0  0  0  0  0  0  0  0  0
    2.9670    0.2106    1.7676 C   0  0  0  0  0  0  0  0  0  0  0  0
    2.2361    0.0031    2.7045 O   0  0  0  0  0  0  0  0  0  0  0  0
    3.2583   -0.9221    0.7574 C   0  0  0  0  0  0  0  0  0  0  0  0
    4.6794   -0.9576    0.2501 C   0  0  0  0  0  0  0  0  0  0  0  0
    5.0906   -0.3788   -0.7213 O   0  0  0  0  0  0  0  0  0  0  0  0
    5.4568   -1.7264    1.0604 O   0  0  0  0  0  0  0  0  0  0  0  0
    6.8330   -1.8524    0.7506 C   0  0  0  0  0  0  0  0  0  0  0  0
    7.7019   -1.3623    1.9144 C   0  0  1  0  0  0  0  0  0  0  0  0
    7.3249   -2.2622    3.4135 Cl  0  0  0  0  0  0  0  0  0  0  0  0
    9.4133   -1.6514    1.4482 Cl  0  0  0  0  0  0  0  0  0  0  0  0
    7.4535    0.3963    2.1923 Cl  0  0  0  0  0  0  0  0  0  0  0  0
    3.1154    2.3218    2.1181 H   0  0  0  0  0  0  0  0  0  0  0  0
    3.5534    1.8216    0.4319 H   0  0  0  0  0  0  0  0  0  0  0  0
    4.6702    1.5048    1.7652 H   0  0  0  0  0  0  0  0  0  0  0  0
    2.6073   -0.7457   -0.1142 H   0  0  0  0  0  0  0  0  0  0  0  0
    2.9826   -1.8685    1.2389 H   0  0  0  0  0  0  0  0  0  0  0  0
    7.0811   -1.2738   -0.1499 H   0  0  0  0  0  0  0  0  0  0  0  0
    7.0589   -2.9171    0.5902 H   0  0  0  0  0  0  0  0  0  0  0  0
  1  2  1  0
  1 13  1  0
  1 14  1  0
  1 15  1  0
  2  3  2  0
  2  4  1  0
  4  5  1  0
  4 16  1  0
  4 17  1  0
  5  6  2  0
  5  7  1  0
  7  8  1  0
  8  9  1  0
  8 18  1  0
  8 19  1  0
  9 10  1  1
  9 11  1  0
  9 12  1  0
M  END

