
     RDKit          3D

 38 41  0  0  0  0  0  0  0  0999 V2000
    0.0076    4.3797   -1.6850 O   0  0  0  0  0  0  0  0  0  0  0  0
   -0.0375    3.2155   -2.0573 C   0  0  0  0  0  0  0  0  0  0  0  0
   -0.7651    2.8217   -3.1482 N   0  0  0  0  0  0  0  0  0  0  0  0
   -0.7899    1.5760   -3.5405 C   0  0  0  0  0  0  0  0  0  0  0  0
   -0.0749    0.5287   -2.8602 C   0  0  0  0  0  0  0  0  0  0  0  0
    0.6331    0.8954   -1.7627 C   0  0  0  0  0  0  0  0  0  0  0  0
    0.6681    2.2065   -1.3460 N   0  0  0  0  0  0  0  0  0  0  0  0
    1.4544    2.5280   -0.1481 C   0  0  2  0  0  0  0  0  0  0  0  0
    1.8233    1.5487    0.2060 H   0  0  0  0  0  0  0  0  0  0  0  0
    0.6747    3.1201    0.8425 O   0  0  0  0  0  0  0  0  0  0  0  0
    1.3210    4.2849    1.4090 C   0  0  2  0  0  0  0  0  0  0  0  0
    1.8569    3.9571    2.3210 H   0  0  0  0  0  0  0  0  0  0  0  0
    0.2305    5.2630    1.8130 C   0  0  0  0  0  0  0  0  0  0  0  0
   -0.6403    4.6950    2.7658 O   0  0  0  0  0  0  0  0  0  0  0  0
    2.3309    4.7923    0.3553 C   0  0  2  0  0  0  0  0  0  0  0  0
    1.8831    5.8102   -0.4739 O   0  0  0  0  0  0  0  0  0  0  0  0
    2.6725    3.4742   -0.3938 C   0  0  2  0  0  0  0  0  0  0  0  0
    3.5681    3.0072    0.0493 H   0  0  0  0  0  0  0  0  0  0  0  0
    2.9171    3.6605   -1.7282 F   0  0  0  0  0  0  0  0  0  0  0  0
   -0.1100   -0.7769   -3.2816 O   0  0  0  0  0  0  0  0  0  0  0  0
   -0.8593   -1.0889   -4.3920 C   0  0  0  0  0  0  0  0  0  0  0  0
   -0.8904   -2.4154   -4.8118 C   0  0  0  0  0  0  0  0  0  0  0  0
   -1.6402   -2.7747   -5.9376 C   0  0  0  0  0  0  0  0  0  0  0  0
   -2.3561   -1.8023   -6.6384 C   0  0  0  0  0  0  0  0  0  0  0  0
   -2.3248   -0.4692   -6.2163 C   0  0  0  0  0  0  0  0  0  0  0  0
   -1.5788   -0.1001   -5.0931 C   0  0  0  0  0  0  0  0  0  0  0  0
   -1.5192    1.2222   -4.6350 N   0  0  0  0  0  0  0  0  0  0  0  0
    1.1925    0.1638   -1.1788 H   0  0  0  0  0  0  0  0  0  0  0  0
   -0.3015    5.5952    0.9045 H   0  0  0  0  0  0  0  0  0  0  0  0
    0.6933    6.1508    2.2723 H   0  0  0  0  0  0  0  0  0  0  0  0
   -1.0081    3.8970    2.3609 H   0  0  0  0  0  0  0  0  0  0  0  0
    3.2290    5.1734    0.8673 H   0  0  0  0  0  0  0  0  0  0  0  0
    1.1687    5.4402   -1.0365 H   0  0  0  0  0  0  0  0  0  0  0  0
   -0.3203   -3.1528   -4.2436 H   0  0  0  0  0  0  0  0  0  0  0  0
   -1.6605   -3.8171   -6.2622 H   0  0  0  0  0  0  0  0  0  0  0  0
   -2.9433   -2.0748   -7.5177 H   0  0  0  0  0  0  0  0  0  0  0  0
   -2.8826    0.2980   -6.7596 H   0  0  0  0  0  0  0  0  0  0  0  0
   -2.0227    1.9629   -5.1124 H   0  0  0  0  0  0  0  0  0  0  0  0
  1  2  2  0
  2  3  1  0
  2  7  1  0
  3  4  2  0
  4  5  1  0
  4 27  1  0
  5  6  2  0
  5 20  1  0
  6  7  1  0
  6 28  1  0
  7  8  1  0
  8  9  1  1
  8 10  1  0
  8 17  1  0
 10 11  1  0
 11 12  1  1
 11 13  1  0
 11 15  1  0
 13 14  1  0
 13 29  1  0
 13 30  1  0
 14 31  1  0
 15 16  1  0
 15 17  1  0
 15 32  1  1
 16 33  1  0
 17 18  1  1
 17 19  1  0
 20 21  1  0
 21 22  2  0
 21 26  1  0
 22 23  1  0
 22 34  1  0
 23 24  2  0
 23 35  1  0
 24 25  1  0
 24 36  1  0
 25 26  2  0
 25 37  1  0
 26 27  1  0
 27 38  1  0
M  END

