
     RDKit          3D

 26 27  0  0  0  0  0  0  0  0999 V2000
    1.5278    0.2643    0.8591 O   0  0  0  0  0  0  0  0  0  0  0  0
    2.6628   -0.1219    0.7132 C   0  0  0  0  0  0  0  0  0  0  0  0
    3.6016    0.2494    1.6115 O   0  0  0  0  0  0  0  0  0  0  0  0
    3.1370   -1.0156   -0.3938 C   0  0  0  0  0  0  0  0  0  0  0  0
    2.3091   -1.7792   -1.1715 C   0  0  0  0  0  0  0  0  0  0  0  0
    0.8831   -2.0111   -1.2381 C   0  0  0  0  0  0  0  0  0  0  0  0
   -0.2330   -1.4540   -0.6253 C   0  0  0  0  0  0  0  0  0  0  0  0
   -1.4590   -2.0379   -1.0311 C   0  0  0  0  0  0  0  0  0  0  0  0
   -1.2848   -3.0400   -1.9606 C   0  0  0  0  0  0  0  0  0  0  0  0
   -2.6307   -4.0749   -2.7656 Br  0  0  0  0  0  0  0  0  0  0  0  0
    0.3780   -3.2832   -2.3560 S   0  0  0  0  0  0  0  0  0  0  0  0
    4.6106   -1.1012   -0.6403 C   0  0  0  0  0  0  0  0  0  0  0  0
    5.3845    0.0668   -0.8110 C   0  0  0  0  0  0  0  0  0  0  0  0
    6.7557   -0.0117   -1.0662 C   0  0  0  0  0  0  0  0  0  0  0  0
    7.3857   -1.2563   -1.1588 C   0  0  0  0  0  0  0  0  0  0  0  0
    6.6341   -2.4230   -0.9899 C   0  0  0  0  0  0  0  0  0  0  0  0
    5.2640   -2.3462   -0.7299 C   0  0  0  0  0  0  0  0  0  0  0  0
    4.4596   -0.1443    1.3877 H   0  0  0  0  0  0  0  0  0  0  0  0
    2.8524   -2.3693   -1.9186 H   0  0  0  0  0  0  0  0  0  0  0  0
   -0.1417   -0.6372    0.0860 H   0  0  0  0  0  0  0  0  0  0  0  0
   -2.4369   -1.7313   -0.6596 H   0  0  0  0  0  0  0  0  0  0  0  0
    4.9025    1.0465   -0.7609 H   0  0  0  0  0  0  0  0  0  0  0  0
    7.3322    0.9065   -1.2045 H   0  0  0  0  0  0  0  0  0  0  0  0
    8.4583   -1.3165   -1.3582 H   0  0  0  0  0  0  0  0  0  0  0  0
    7.1187   -3.4008   -1.0507 H   0  0  0  0  0  0  0  0  0  0  0  0
    4.6895   -3.2631   -0.5769 H   0  0  0  0  0  0  0  0  0  0  0  0
  1  2  2  0
  2  3  1  0
  2  4  1  0
  3 18  1  0
  4  5  2  0
  4 12  1  0
  5  6  1  0
  5 19  1  0
  6  7  2  0
  6 11  1  0
  7  8  1  0
  7 20  1  0
  8  9  2  0
  8 21  1  0
  9 10  1  0
  9 11  1  0
 12 13  2  0
 12 17  1  0
 13 14  1  0
 13 22  1  0
 14 15  2  0
 14 23  1  0
 15 16  1  0
 15 24  1  0
 16 17  2  0
 16 25  1  0
 17 26  1  0
M  END

