
     RDKit          3D

 36 37  0  0  0  0  0  0  0  0999 V2000
   -0.5431   -0.9592    1.3959 C   0  0  0  0  0  0  0  0  0  0  0  0
    0.5134   -0.0377    0.7701 C   0  0  1  0  0  0  0  0  0  0  0  0
    0.1456    0.3687   -0.1801 H   0  0  0  0  0  0  0  0  0  0  0  0
    0.7718    1.3857    1.9121 S   0  0  0  0  0  0  0  0  0  0  0  0
    1.8050    2.4290    0.9167 C   0  0  0  0  0  0  0  0  0  0  0  0
    2.2050    1.9750   -0.2561 N   0  0  0  0  0  0  0  0  0  0  0  0
    2.9957    2.7124   -1.0498 C   0  0  0  0  0  0  0  0  0  0  0  0
    3.3623    2.1654   -2.2247 N   0  0  0  0  0  0  0  0  0  0  0  0
    3.4227    4.0210   -0.6502 C   0  0  0  0  0  0  0  0  0  0  0  0
    4.2627    4.7848   -1.5148 C   0  0  0  0  0  0  0  0  0  0  0  0
    4.9458    5.3575   -2.2615 N   0  0  0  0  0  0  0  0  0  0  0  0
    2.9948    4.4972    0.5911 C   0  0  0  0  0  0  0  0  0  0  0  0
    2.1734    3.7134    1.4125 C   0  0  0  0  0  0  0  0  0  0  0  0
    1.7288    4.1876    2.6852 C   0  0  0  0  0  0  0  0  0  0  0  0
    1.3708    4.5758    3.7202 N   0  0  0  0  0  0  0  0  0  0  0  0
    1.7746   -0.8378    0.3944 C   0  0  0  0  0  0  0  0  0  0  0  0
    1.8214   -1.3962   -0.6863 O   0  0  0  0  0  0  0  0  0  0  0  0
    2.7313   -0.9325    1.3724 N   0  0  0  0  0  0  0  0  0  0  0  0
    3.9418   -1.6347    1.3432 C   0  0  0  0  0  0  0  0  0  0  0  0
    4.3323   -2.4430    0.2599 C   0  0  0  0  0  0  0  0  0  0  0  0
    5.5529   -3.1175    0.3008 C   0  0  0  0  0  0  0  0  0  0  0  0
    6.0119   -4.1124   -1.0610 Cl  0  0  0  0  0  0  0  0  0  0  0  0
    6.4125   -3.0176    1.3970 C   0  0  0  0  0  0  0  0  0  0  0  0
    6.0300   -2.2188    2.4750 C   0  0  0  0  0  0  0  0  0  0  0  0
    4.8153   -1.5365    2.4512 C   0  0  0  0  0  0  0  0  0  0  0  0
    4.3701   -0.5397    3.8253 Cl  0  0  0  0  0  0  0  0  0  0  0  0
   -1.4902   -0.4227    1.5550 H   0  0  0  0  0  0  0  0  0  0  0  0
   -0.2076   -1.3695    2.3612 H   0  0  0  0  0  0  0  0  0  0  0  0
   -0.7298   -1.7999    0.7112 H   0  0  0  0  0  0  0  0  0  0  0  0
    3.0570    1.2211   -2.4306 H   0  0  0  0  0  0  0  0  0  0  0  0
    3.9793    2.6484   -2.8648 H   0  0  0  0  0  0  0  0  0  0  0  0
    3.3037    5.4895    0.9244 H   0  0  0  0  0  0  0  0  0  0  0  0
    2.5769   -0.3717    2.2088 H   0  0  0  0  0  0  0  0  0  0  0  0
    3.6717   -2.5300   -0.5985 H   0  0  0  0  0  0  0  0  0  0  0  0
    7.3617   -3.5541    1.4072 H   0  0  0  0  0  0  0  0  0  0  0  0
    6.6777   -2.1191    3.3474 H   0  0  0  0  0  0  0  0  0  0  0  0
  1  2  1  0
  1 27  1  0
  1 28  1  0
  1 29  1  0
  2  3  1  6
  2  4  1  0
  2 16  1  0
  4  5  1  0
  5  6  2  0
  5 13  1  0
  6  7  1  0
  7  8  1  0
  7  9  2  0
  8 30  1  0
  8 31  1  0
  9 10  1  0
  9 12  1  0
 10 11  3  0
 12 13  2  0
 12 32  1  0
 13 14  1  0
 14 15  3  0
 16 17  2  0
 16 18  1  0
 18 19  1  0
 18 33  1  0
 19 20  2  0
 19 25  1  0
 20 21  1  0
 20 34  1  0
 21 22  1  0
 21 23  2  0
 23 24  1  0
 23 35  1  0
 24 25  2  0
 24 36  1  0
 25 26  1  0
M  END

