
     RDKit          3D

 61 64  0  0  0  0  0  0  0  0999 V2000
    3.4239    1.3749   -2.6304 C   0  0  0  0  0  0  0  0  0  0  0  0
    3.5547    0.6688   -1.4164 O   0  0  0  0  0  0  0  0  0  0  0  0
    3.8807    1.3408   -0.2862 C   0  0  0  0  0  0  0  0  0  0  0  0
    4.1150    2.7243   -0.2219 C   0  0  0  0  0  0  0  0  0  0  0  0
    4.4385    3.3146    1.0017 C   0  0  0  0  0  0  0  0  0  0  0  0
    4.5675    2.5531    2.1701 C   0  0  0  0  0  0  0  0  0  0  0  0
    4.8269    3.2797    3.4620 C   0  0  0  0  0  0  0  0  0  0  0  0
    4.2802    4.3533    3.6786 O   0  0  0  0  0  0  0  0  0  0  0  0
    5.6527    2.6859    4.3981 N   0  0  0  0  0  0  0  0  0  0  0  0
    5.7698    3.3117    5.7111 C   0  0  0  0  0  0  0  0  0  0  0  0
    5.8314    2.2525    6.8173 C   0  0  0  0  0  0  0  0  0  0  0  0
    6.9424    1.1949    6.5997 C   0  0  1  0  0  0  0  0  0  0  0  0
    6.8099    0.6501    5.1660 C   0  0  0  0  0  0  0  0  0  0  0  0
    6.7325    1.7472    4.1035 C   0  0  0  0  0  0  0  0  0  0  0  0
    8.3627    1.7418    6.8617 C   0  0  0  0  0  0  0  0  0  0  0  0
    8.6928    1.9799    8.3522 C   0  0  2  0  0  0  0  0  0  0  0  0
   10.0920    2.4223    8.4761 N   0  0  0  0  0  0  0  0  0  0  0  0
   10.3220    3.8196    8.0935 C   0  0  0  0  0  0  0  0  0  0  0  0
   10.0182    4.8094    9.2360 C   0  0  0  0  0  0  0  0  0  0  0  0
   10.7335    4.5017   10.4728 N   0  0  0  0  0  0  0  0  0  0  0  0
   12.1080    4.9631   10.5195 C   0  0  0  0  0  0  0  0  0  0  0  0
   10.5368    3.1034   10.8513 C   0  0  0  0  0  0  0  0  0  0  0  0
   10.8363    2.1231    9.7017 C   0  0  0  0  0  0  0  0  0  0  0  0
    8.3814    0.6823    9.1065 C   0  0  0  0  0  0  0  0  0  0  0  0
    6.9529    0.2267    8.8096 C   0  0  0  0  0  0  0  0  0  0  0  0
    6.7149    0.0493    7.4292 O   0  0  0  0  0  0  0  0  0  0  0  0
    4.3144    1.1703    2.0943 C   0  0  0  0  0  0  0  0  0  0  0  0
    3.9727    0.5707    0.8875 C   0  0  0  0  0  0  0  0  0  0  0  0
    3.1567    0.6339   -3.3956 H   0  0  0  0  0  0  0  0  0  0  0  0
    4.3686    1.8671   -2.9239 H   0  0  0  0  0  0  0  0  0  0  0  0
    2.6270    2.1384   -2.5782 H   0  0  0  0  0  0  0  0  0  0  0  0
    4.0374    3.3493   -1.1117 H   0  0  0  0  0  0  0  0  0  0  0  0
    4.5883    4.3946    1.0621 H   0  0  0  0  0  0  0  0  0  0  0  0
    4.9071    3.9754    5.8446 H   0  0  0  0  0  0  0  0  0  0  0  0
    6.6693    3.9587    5.7407 H   0  0  0  0  0  0  0  0  0  0  0  0
    4.8712    1.7119    6.8521 H   0  0  0  0  0  0  0  0  0  0  0  0
    5.9481    2.7645    7.7851 H   0  0  0  0  0  0  0  0  0  0  0  0
    5.8914    0.0414    5.1356 H   0  0  0  0  0  0  0  0  0  0  0  0
    7.6538   -0.0255    4.9543 H   0  0  0  0  0  0  0  0  0  0  0  0
    6.5889    1.3093    3.1098 H   0  0  0  0  0  0  0  0  0  0  0  0
    7.6911    2.3025    4.0630 H   0  0  0  0  0  0  0  0  0  0  0  0
    8.5175    2.6663    6.2861 H   0  0  0  0  0  0  0  0  0  0  0  0
    9.0977    1.0120    6.4849 H   0  0  0  0  0  0  0  0  0  0  0  0
    7.9958    2.7516    8.7472 H   0  0  0  0  0  0  0  0  0  0  0  0
    9.7201    4.0711    7.2068 H   0  0  0  0  0  0  0  0  0  0  0  0
   11.3791    3.9240    7.7872 H   0  0  0  0  0  0  0  0  0  0  0  0
    8.9337    4.7913    9.4533 H   0  0  0  0  0  0  0  0  0  0  0  0
   10.2588    5.8401    8.9255 H   0  0  0  0  0  0  0  0  0  0  0  0
   12.1389    6.0489   10.3311 H   0  0  0  0  0  0  0  0  0  0  0  0
   12.8051    4.4851    9.7951 H   0  0  0  0  0  0  0  0  0  0  0  0
   12.5205    4.7922   11.5276 H   0  0  0  0  0  0  0  0  0  0  0  0
    9.4854    2.9769   11.1734 H   0  0  0  0  0  0  0  0  0  0  0  0
   11.1671    2.8753   11.7277 H   0  0  0  0  0  0  0  0  0  0  0  0
   10.6588    1.0861   10.0179 H   0  0  0  0  0  0  0  0  0  0  0  0
   11.9121    2.1811    9.4523 H   0  0  0  0  0  0  0  0  0  0  0  0
    8.4876    0.8076   10.1959 H   0  0  0  0  0  0  0  0  0  0  0  0
    9.0870   -0.1051    8.7898 H   0  0  0  0  0  0  0  0  0  0  0  0
    6.2313    0.9448    9.2493 H   0  0  0  0  0  0  0  0  0  0  0  0
    6.7575   -0.7504    9.2779 H   0  0  0  0  0  0  0  0  0  0  0  0
    4.3565    0.5581    2.9981 H   0  0  0  0  0  0  0  0  0  0  0  0
    3.7611   -0.4985    0.8237 H   0  0  0  0  0  0  0  0  0  0  0  0
  1  2  1  0
  1 29  1  0
  1 30  1  0
  1 31  1  0
  2  3  1  0
  3  4  2  0
  3 28  1  0
  4  5  1  0
  4 32  1  0
  5  6  2  0
  5 33  1  0
  6  7  1  0
  6 27  1  0
  7  8  2  0
  7  9  1  0
  9 10  1  0
  9 14  1  0
 10 11  1  0
 10 34  1  0
 10 35  1  0
 11 12  1  0
 11 36  1  0
 11 37  1  0
 12 13  1  0
 12 15  1  0
 12 26  1  1
 13 14  1  0
 13 38  1  0
 13 39  1  0
 14 40  1  0
 14 41  1  0
 15 16  1  0
 15 42  1  0
 15 43  1  0
 16 17  1  0
 16 24  1  0
 16 44  1  1
 17 18  1  0
 17 23  1  0
 18 19  1  0
 18 45  1  0
 18 46  1  0
 19 20  1  0
 19 47  1  0
 19 48  1  0
 20 21  1  0
 20 22  1  0
 21 49  1  0
 21 50  1  0
 21 51  1  0
 22 23  1  0
 22 52  1  0
 22 53  1  0
 23 54  1  0
 23 55  1  0
 24 25  1  0
 24 56  1  0
 24 57  1  0
 25 26  1  0
 25 58  1  0
 25 59  1  0
 27 28  2  0
 27 60  1  0
 28 61  1  0
M  END

