
     RDKit          3D

 31 32  0  0  0  0  0  0  0  0999 V2000
    3.1194    2.7943    1.7262 C   0  0  0  0  0  0  0  0  0  0  0  0
    3.2514    3.6239    0.4610 C   0  0  0  0  0  0  0  0  0  0  0  0
    3.5024    2.7953   -0.6953 O   0  0  0  0  0  0  0  0  0  0  0  0
    4.7730    2.4661   -0.9622 C   0  0  0  0  0  0  0  0  0  0  0  0
    5.7308    2.8064   -0.3159 O   0  0  0  0  0  0  0  0  0  0  0  0
    4.8372    1.5481   -2.1883 C   0  0  0  0  0  0  0  0  0  0  0  0
    6.1706    1.3695   -2.7073 N   0  0  0  0  0  0  0  0  0  0  0  0
    7.0416    0.4183   -2.0334 C   0  0  0  0  0  0  0  0  0  0  0  0
    6.6748    2.3142   -3.5647 C   0  0  0  0  0  0  0  0  0  0  0  0
    5.6824    3.6274   -4.1487 S   0  0  0  0  0  0  0  0  0  0  0  0
    6.8257    4.3231   -5.1320 N   0  0  0  0  0  0  0  0  0  0  0  0
    7.9511    3.6172   -5.0358 C   0  0  0  0  0  0  0  0  0  0  0  0
    9.1411    3.9546   -5.7603 C   0  0  0  0  0  0  0  0  0  0  0  0
   10.2653    3.1850   -5.6122 C   0  0  0  0  0  0  0  0  0  0  0  0
   10.2753    2.0485   -4.7442 C   0  0  0  0  0  0  0  0  0  0  0  0
    9.1560    1.6897   -4.0326 C   0  0  0  0  0  0  0  0  0  0  0  0
    7.9524    2.4572   -4.1545 C   0  0  0  0  0  0  0  0  0  0  0  0
    2.8501    3.4460    2.5727 H   0  0  0  0  0  0  0  0  0  0  0  0
    4.0698    2.2966    1.9702 H   0  0  0  0  0  0  0  0  0  0  0  0
    2.3337    2.0304    1.6181 H   0  0  0  0  0  0  0  0  0  0  0  0
    4.0651    4.3583    0.5508 H   0  0  0  0  0  0  0  0  0  0  0  0
    2.3156    4.1503    0.2255 H   0  0  0  0  0  0  0  0  0  0  0  0
    4.1599    1.9358   -2.9670 H   0  0  0  0  0  0  0  0  0  0  0  0
    4.4182    0.5727   -1.8898 H   0  0  0  0  0  0  0  0  0  0  0  0
    7.5236   -0.2602   -2.7545 H   0  0  0  0  0  0  0  0  0  0  0  0
    6.4353   -0.1939   -1.3533 H   0  0  0  0  0  0  0  0  0  0  0  0
    7.8175    0.9222   -1.4338 H   0  0  0  0  0  0  0  0  0  0  0  0
    9.1155    4.8271   -6.4156 H   0  0  0  0  0  0  0  0  0  0  0  0
   11.1750    3.4405   -6.1625 H   0  0  0  0  0  0  0  0  0  0  0  0
   11.1902    1.4596   -4.6446 H   0  0  0  0  0  0  0  0  0  0  0  0
    9.2029    0.8221   -3.3776 H   0  0  0  0  0  0  0  0  0  0  0  0
  1  2  1  0
  1 18  1  0
  1 19  1  0
  1 20  1  0
  2  3  1  0
  2 21  1  0
  2 22  1  0
  3  4  1  0
  4  5  2  0
  4  6  1  0
  6  7  1  0
  6 23  1  0
  6 24  1  0
  7  8  1  0
  7  9  1  0
  8 25  1  0
  8 26  1  0
  8 27  1  0
  9 10  1  0
  9 17  2  0
 10 11  1  0
 11 12  2  0
 12 13  1  0
 12 17  1  0
 13 14  2  0
 13 28  1  0
 14 15  1  0
 14 29  1  0
 15 16  2  0
 15 30  1  0
 16 17  1  0
 16 31  1  0
M  END

