
     RDKit          3D

 52 54  0  0  0  0  0  0  0  0999 V2000
    3.6805    2.5476    1.3051 C   0  0  0  0  0  0  0  0  0  0  0  0
    4.0476    1.1353    0.8497 C   0  0  0  0  0  0  0  0  0  0  0  0
    4.8200    1.1194   -0.4680 C   0  0  0  0  0  0  0  0  0  0  0  0
    5.2142   -0.2800   -0.9203 C   0  0  0  0  0  0  0  0  0  0  0  0
    5.0443   -1.2473   -0.2073 O   0  0  0  0  0  0  0  0  0  0  0  0
    5.7875   -0.4497   -2.2990 C   0  0  0  0  0  0  0  0  0  0  0  0
    5.8818   -1.7156   -2.9035 C   0  0  0  0  0  0  0  0  0  0  0  0
    6.3443   -1.9152   -4.2133 C   0  0  0  0  0  0  0  0  0  0  0  0
    6.7929   -0.8766   -5.0491 C   0  0  0  0  0  0  0  0  0  0  0  0
    7.2599   -1.1518   -6.4552 C   0  0  0  0  0  0  0  0  0  0  0  0
    7.0525   -2.2394   -6.9539 O   0  0  0  0  0  0  0  0  0  0  0  0
    8.0204   -0.0740   -7.2114 C   0  0  0  0  0  0  0  0  0  0  0  0
    9.4600    0.1350   -6.6952 C   0  0  0  0  0  0  0  0  0  0  0  0
   10.3627   -1.0890   -6.8562 C   0  0  0  0  0  0  0  0  0  0  0  0
    6.7122    0.3867   -4.4285 C   0  0  0  0  0  0  0  0  0  0  0  0
    6.2484    0.5819   -3.1378 C   0  0  0  0  0  0  0  0  0  0  0  0
    6.3195    1.9304   -2.8317 O   0  0  0  0  0  0  0  0  0  0  0  0
    6.8162    2.6075   -3.9958 C   0  0  1  0  0  0  0  0  0  0  0  0
    5.8593    3.6741   -4.5068 C   0  0  0  0  0  0  0  0  0  0  0  0
    4.5139    3.1395   -4.9628 C   0  0  0  0  0  0  0  0  0  0  0  0
    4.0040    2.1091   -4.5978 O   0  0  0  0  0  0  0  0  0  0  0  0
    3.9395    3.9961   -5.8177 O   0  0  0  0  0  0  0  0  0  0  0  0
    2.6358    3.6453   -6.2940 C   0  0  0  0  0  0  0  0  0  0  0  0
    8.1992    3.2539   -3.6641 C   0  0  0  0  0  0  0  0  0  0  0  0
    8.7684    3.9493   -4.4567 O   0  0  0  0  0  0  0  0  0  0  0  0
    8.6764    2.9562   -2.4556 O   0  0  0  0  0  0  0  0  0  0  0  0
    7.0307    1.6015   -4.9883 O   0  0  0  0  0  0  0  0  0  0  0  0
    6.3162   -3.2426   -4.4957 O   0  0  0  0  0  0  0  0  0  0  0  0
    5.7091   -3.8884   -3.3835 C   0  0  0  0  0  0  0  0  0  0  0  0
    5.5509   -2.9141   -2.3587 O   0  0  0  0  0  0  0  0  0  0  0  0
    3.1214    2.5287    2.2538 H   0  0  0  0  0  0  0  0  0  0  0  0
    3.0512    3.0632    0.5599 H   0  0  0  0  0  0  0  0  0  0  0  0
    4.5786    3.1688    1.4630 H   0  0  0  0  0  0  0  0  0  0  0  0
    3.1368    0.5235    0.7383 H   0  0  0  0  0  0  0  0  0  0  0  0
    4.6457    0.6261    1.6223 H   0  0  0  0  0  0  0  0  0  0  0  0
    5.7421    1.7235   -0.3837 H   0  0  0  0  0  0  0  0  0  0  0  0
    4.2493    1.6027   -1.2807 H   0  0  0  0  0  0  0  0  0  0  0  0
    7.4755    0.8793   -7.1539 H   0  0  0  0  0  0  0  0  0  0  0  0
    8.0424   -0.4026   -8.2616 H   0  0  0  0  0  0  0  0  0  0  0  0
    9.4322    0.4486   -5.6381 H   0  0  0  0  0  0  0  0  0  0  0  0
    9.8915    0.9898   -7.2425 H   0  0  0  0  0  0  0  0  0  0  0  0
    9.9809   -1.9595   -6.2983 H   0  0  0  0  0  0  0  0  0  0  0  0
   11.3801   -0.8783   -6.4901 H   0  0  0  0  0  0  0  0  0  0  0  0
   10.4423   -1.3910   -7.9135 H   0  0  0  0  0  0  0  0  0  0  0  0
    6.3535    4.2147   -5.3253 H   0  0  0  0  0  0  0  0  0  0  0  0
    5.6844    4.4092   -3.7030 H   0  0  0  0  0  0  0  0  0  0  0  0
    2.3272    4.4593   -6.9606 H   0  0  0  0  0  0  0  0  0  0  0  0
    1.9293    3.5454   -5.4565 H   0  0  0  0  0  0  0  0  0  0  0  0
    2.6674    2.6919   -6.8418 H   0  0  0  0  0  0  0  0  0  0  0  0
    8.0058    2.4208   -1.9918 H   0  0  0  0  0  0  0  0  0  0  0  0
    6.3589   -4.7040   -3.0244 H   0  0  0  0  0  0  0  0  0  0  0  0
    4.7192   -4.2866   -3.6779 H   0  0  0  0  0  0  0  0  0  0  0  0
  1  2  1  0
  1 31  1  0
  1 32  1  0
  1 33  1  0
  2  3  1  0
  2 34  1  0
  2 35  1  0
  3  4  1  0
  3 36  1  0
  3 37  1  0
  4  5  2  0
  4  6  1  0
  6  7  2  0
  6 16  1  0
  7  8  1  0
  7 30  1  0
  8  9  2  0
  8 28  1  0
  9 10  1  0
  9 15  1  0
 10 11  2  0
 10 12  1  0
 12 13  1  0
 12 38  1  0
 12 39  1  0
 13 14  1  0
 13 40  1  0
 13 41  1  0
 14 42  1  0
 14 43  1  0
 14 44  1  0
 15 16  2  0
 15 27  1  0
 16 17  1  0
 17 18  1  0
 18 19  1  0
 18 24  1  1
 18 27  1  0
 19 20  1  0
 19 45  1  0
 19 46  1  0
 20 21  2  0
 20 22  1  0
 22 23  1  0
 23 47  1  0
 23 48  1  0
 23 49  1  0
 24 25  2  0
 24 26  1  0
 26 50  1  0
 28 29  1  0
 29 30  1  0
 29 51  1  0
 29 52  1  0
M  END

