
     RDKit          3D

 52 54  0  0  0  0  0  0  0  0999 V2000
    2.1283    0.9402    1.6430 C   0  0  0  0  0  0  0  0  0  0  0  0
    3.3584    0.3642    0.9865 C   0  0  0  0  0  0  0  0  0  0  0  0
    3.2625   -0.5251   -0.0954 C   0  0  0  0  0  0  0  0  0  0  0  0
    4.4036   -1.0584   -0.6953 C   0  0  0  0  0  0  0  0  0  0  0  0
    5.6801   -0.7399   -0.2105 C   0  0  0  0  0  0  0  0  0  0  0  0
    6.8747   -1.2773   -0.9477 C   0  0  0  0  0  0  0  0  0  0  0  0
    6.8582   -1.3671   -2.1704 O   0  0  0  0  0  0  0  0  0  0  0  0
    8.0012   -1.6150   -0.2166 N   0  0  0  0  0  0  0  0  0  0  0  0
    7.9713   -2.2009    1.1278 C   0  0  0  0  0  0  0  0  0  0  0  0
    8.0535   -3.7349    1.0611 C   0  0  0  0  0  0  0  0  0  0  0  0
    9.2283   -4.2229    0.2026 C   0  0  0  0  0  0  0  0  0  0  0  0
    9.2176   -3.5439   -1.1724 C   0  0  2  0  0  0  0  0  0  0  0  0
   10.4164   -3.9430   -2.0324 C   0  0  0  0  0  0  0  0  0  0  0  0
   11.4489   -4.3857   -1.5643 O   0  0  0  0  0  0  0  0  0  0  0  0
   10.2146   -3.7107   -3.3800 N   0  0  0  0  0  0  0  0  0  0  0  0
   11.1004   -3.8995   -4.4523 C   0  0  0  0  0  0  0  0  0  0  0  0
   12.4025   -4.4136   -4.3052 C   0  0  0  0  0  0  0  0  0  0  0  0
   13.2160   -4.5699   -5.4281 C   0  0  0  0  0  0  0  0  0  0  0  0
   12.7939   -4.2317   -6.7225 C   0  0  0  0  0  0  0  0  0  0  0  0
   13.6788   -4.3980   -7.9384 C   0  0  0  0  0  0  0  0  0  0  0  0
   13.3767   -5.6475   -8.7806 C   0  0  0  0  0  0  0  0  0  0  0  0
   14.1740   -6.5241   -8.9673 O   0  0  0  0  0  0  0  0  0  0  0  0
   12.1435   -5.7033   -9.3223 O   0  0  0  0  0  0  0  0  0  0  0  0
   11.4939   -3.7307   -6.8207 C   0  0  0  0  0  0  0  0  0  0  0  0
   11.0242   -3.4055   -8.0585 F   0  0  0  0  0  0  0  0  0  0  0  0
   10.6462   -3.5562   -5.7394 C   0  0  0  0  0  0  0  0  0  0  0  0
    9.1762   -2.0087   -0.9830 C   0  0  0  0  0  0  0  0  0  0  0  0
    5.7860    0.1610    0.8626 C   0  0  0  0  0  0  0  0  0  0  0  0
    4.6423    0.7054    1.4458 C   0  0  0  0  0  0  0  0  0  0  0  0
    1.2182    0.7142    1.0685 H   0  0  0  0  0  0  0  0  0  0  0  0
    2.2037    2.0348    1.7461 H   0  0  0  0  0  0  0  0  0  0  0  0
    1.9922    0.5310    2.6590 H   0  0  0  0  0  0  0  0  0  0  0  0
    2.2759   -0.7958   -0.4819 H   0  0  0  0  0  0  0  0  0  0  0  0
    4.3185   -1.7241   -1.5567 H   0  0  0  0  0  0  0  0  0  0  0  0
    7.0575   -1.8918    1.6476 H   0  0  0  0  0  0  0  0  0  0  0  0
    8.8284   -1.8011    1.6993 H   0  0  0  0  0  0  0  0  0  0  0  0
    7.1051   -4.1178    0.6439 H   0  0  0  0  0  0  0  0  0  0  0  0
    8.1340   -4.1376    2.0844 H   0  0  0  0  0  0  0  0  0  0  0  0
    9.1948   -5.3181    0.0899 H   0  0  0  0  0  0  0  0  0  0  0  0
   10.1892   -3.9960    0.6940 H   0  0  0  0  0  0  0  0  0  0  0  0
    8.2952   -3.8190   -1.7139 H   0  0  0  0  0  0  0  0  0  0  0  0
    9.3036   -3.3397   -3.6299 H   0  0  0  0  0  0  0  0  0  0  0  0
   12.7594   -4.6819   -3.3143 H   0  0  0  0  0  0  0  0  0  0  0  0
   14.2254   -4.9676   -5.2944 H   0  0  0  0  0  0  0  0  0  0  0  0
   14.7290   -4.4785   -7.6330 H   0  0  0  0  0  0  0  0  0  0  0  0
   13.5839   -3.5154   -8.5950 H   0  0  0  0  0  0  0  0  0  0  0  0
   11.6256   -4.9130   -9.0997 H   0  0  0  0  0  0  0  0  0  0  0  0
    9.6443   -3.1563   -5.9103 H   0  0  0  0  0  0  0  0  0  0  0  0
    9.1474   -1.4880   -1.9468 H   0  0  0  0  0  0  0  0  0  0  0  0
   10.0792   -1.6877   -0.4353 H   0  0  0  0  0  0  0  0  0  0  0  0
    6.7721    0.4607    1.2254 H   0  0  0  0  0  0  0  0  0  0  0  0
    4.7473    1.4169    2.2702 H   0  0  0  0  0  0  0  0  0  0  0  0
  1  2  1  0
  1 30  1  0
  1 31  1  0
  1 32  1  0
  2  3  2  0
  2 29  1  0
  3  4  1  0
  3 33  1  0
  4  5  2  0
  4 34  1  0
  5  6  1  0
  5 28  1  0
  6  7  2  0
  6  8  1  0
  8  9  1  0
  8 27  1  0
  9 10  1  0
  9 35  1  0
  9 36  1  0
 10 11  1  0
 10 37  1  0
 10 38  1  0
 11 12  1  0
 11 39  1  0
 11 40  1  0
 12 13  1  0
 12 27  1  0
 12 41  1  6
 13 14  2  0
 13 15  1  0
 15 16  1  0
 15 42  1  0
 16 17  2  0
 16 26  1  0
 17 18  1  0
 17 43  1  0
 18 19  2  0
 18 44  1  0
 19 20  1  0
 19 24  1  0
 20 21  1  0
 20 45  1  0
 20 46  1  0
 21 22  2  0
 21 23  1  0
 23 47  1  0
 24 25  1  0
 24 26  2  0
 26 48  1  0
 27 49  1  0
 27 50  1  0
 28 29  2  0
 28 51  1  0
 29 52  1  0
M  END

