
     RDKit          3D

 43 44  0  0  0  0  0  0  0  0999 V2000
   11.3815   -3.9029    0.5563 C   0  0  0  0  0  0  0  0  0  0  0  0
   10.1104   -3.4854    0.1168 O   0  0  0  0  0  0  0  0  0  0  0  0
    9.0484   -3.5684    0.9656 C   0  0  0  0  0  0  0  0  0  0  0  0
    9.1231   -4.0550    2.2758 C   0  0  0  0  0  0  0  0  0  0  0  0
    7.9724   -4.0978    3.0722 C   0  0  0  0  0  0  0  0  0  0  0  0
    6.7379   -3.6599    2.5868 C   0  0  0  0  0  0  0  0  0  0  0  0
    5.4823   -3.7275    3.4282 C   0  0  0  0  0  0  0  0  0  0  0  0
    4.6164   -4.9781    3.2065 C   0  0  0  0  0  0  0  0  0  0  0  0
    5.3227   -6.1875    3.6268 N   0  0  0  0  0  0  0  0  0  0  0  0
    4.6083   -7.6892    3.3345 S   0  0  1  0  0  0  0  0  0  0  0  0
    5.2515   -8.5921    4.2928 O   0  0  0  0  0  0  0  0  0  0  0  0
    3.1473   -7.5586    3.2730 O   0  0  0  0  0  0  0  0  0  0  0  0
    5.1767   -8.0902    1.6826 C   0  0  0  0  0  0  0  0  0  0  0  0
    6.5266   -8.3842    1.4744 C   0  0  0  0  0  0  0  0  0  0  0  0
    6.9548   -8.7277    0.1925 C   0  0  0  0  0  0  0  0  0  0  0  0
    6.0545   -8.7894   -0.8852 C   0  0  0  0  0  0  0  0  0  0  0  0
    6.5178   -9.1668   -2.2704 C   0  0  0  0  0  0  0  0  0  0  0  0
    4.7022   -8.4967   -0.6418 C   0  0  0  0  0  0  0  0  0  0  0  0
    4.2557   -8.1499    0.6342 C   0  0  0  0  0  0  0  0  0  0  0  0
    6.6903   -3.1725    1.2680 C   0  0  0  0  0  0  0  0  0  0  0  0
    7.8144   -3.1152    0.4428 C   0  0  0  0  0  0  0  0  0  0  0  0
    7.7524   -2.5853   -0.9653 C   0  0  0  0  0  0  0  0  0  0  0  0
   12.0726   -3.7435   -0.2827 H   0  0  0  0  0  0  0  0  0  0  0  0
   11.3926   -4.9739    0.8295 H   0  0  0  0  0  0  0  0  0  0  0  0
   11.7318   -3.3145    1.4239 H   0  0  0  0  0  0  0  0  0  0  0  0
   10.0702   -4.4013    2.6899 H   0  0  0  0  0  0  0  0  0  0  0  0
    8.0507   -4.4803    4.0936 H   0  0  0  0  0  0  0  0  0  0  0  0
    4.8449   -2.8521    3.2192 H   0  0  0  0  0  0  0  0  0  0  0  0
    5.7440   -3.6635    4.4991 H   0  0  0  0  0  0  0  0  0  0  0  0
    4.3836   -5.0779    2.1340 H   0  0  0  0  0  0  0  0  0  0  0  0
    3.6521   -4.8634    3.7345 H   0  0  0  0  0  0  0  0  0  0  0  0
    5.6347   -6.1923    4.5990 H   0  0  0  0  0  0  0  0  0  0  0  0
    7.2292   -8.3455    2.3087 H   0  0  0  0  0  0  0  0  0  0  0  0
    8.0106   -8.9563    0.0240 H   0  0  0  0  0  0  0  0  0  0  0  0
    7.6049   -9.3282   -2.3057 H   0  0  0  0  0  0  0  0  0  0  0  0
    6.2674   -8.3808   -3.0020 H   0  0  0  0  0  0  0  0  0  0  0  0
    6.0275  -10.0930   -2.6141 H   0  0  0  0  0  0  0  0  0  0  0  0
    3.9836   -8.5442   -1.4652 H   0  0  0  0  0  0  0  0  0  0  0  0
    3.2046   -7.9328    0.8313 H   0  0  0  0  0  0  0  0  0  0  0  0
    5.7359   -2.8158    0.8663 H   0  0  0  0  0  0  0  0  0  0  0  0
    6.7319   -2.2702   -1.2269 H   0  0  0  0  0  0  0  0  0  0  0  0
    8.0796   -3.3468   -1.6926 H   0  0  0  0  0  0  0  0  0  0  0  0
    8.4284   -1.7244   -1.0983 H   0  0  0  0  0  0  0  0  0  0  0  0
  1  2  1  0
  1 23  1  0
  1 24  1  0
  1 25  1  0
  2  3  1  0
  3  4  2  0
  3 21  1  0
  4  5  1  0
  4 26  1  0
  5  6  2  0
  5 27  1  0
  6  7  1  0
  6 20  1  0
  7  8  1  0
  7 28  1  0
  7 29  1  0
  8  9  1  0
  8 30  1  0
  8 31  1  0
 10  9  1  1
  9 32  1  0
 10 11  2  0
 10 12  2  0
 10 13  1  0
 13 14  2  0
 13 19  1  0
 14 15  1  0
 14 33  1  0
 15 16  2  0
 15 34  1  0
 16 17  1  0
 16 18  1  0
 17 35  1  0
 17 36  1  0
 17 37  1  0
 18 19  2  0
 18 38  1  0
 19 39  1  0
 20 21  2  0
 20 40  1  0
 21 22  1  0
 22 41  1  0
 22 42  1  0
 22 43  1  0
M  END

