
     RDKit          3D

 25 26  0  0  0  0  0  0  0  0999 V2000
    1.3671   -1.3020    0.6092 C   0  0  0  0  0  0  0  0  0  0  0  0
    2.6296   -0.4961    0.3270 C   0  0  0  0  0  0  0  0  0  0  0  0
    3.1348    0.1329    1.5385 N   0  0  0  0  0  0  0  0  0  0  0  0
    4.3468    0.9069    1.3422 C   0  0  0  0  0  0  0  0  0  0  0  0
    4.8088    1.5314    2.6168 C   0  0  0  0  0  0  0  0  0  0  0  0
    5.1258    2.7624    2.8473 N   0  0  0  0  0  0  0  0  0  0  0  0
    5.5126    2.7892    4.1828 C   0  0  0  0  0  0  0  0  0  0  0  0
    5.9557    3.8421    4.9921 C   0  0  0  0  0  0  0  0  0  0  0  0
    6.2578    3.5137    6.3098 C   0  0  0  0  0  0  0  0  0  0  0  0
    6.6879    4.4792    7.1349 F   0  0  0  0  0  0  0  0  0  0  0  0
    6.1384    2.2168    6.8357 C   0  0  0  0  0  0  0  0  0  0  0  0
    5.6943    1.1725    6.0198 C   0  0  0  0  0  0  0  0  0  0  0  0
    5.5297   -0.4478    6.6235 Cl  0  0  0  0  0  0  0  0  0  0  0  0
    5.3900    1.4870    4.6982 C   0  0  0  0  0  0  0  0  0  0  0  0
    4.9443    0.6854    3.6908 O   0  0  0  0  0  0  0  0  0  0  0  0
    0.9688   -1.7469   -0.3158 H   0  0  0  0  0  0  0  0  0  0  0  0
    0.5900   -0.6621    1.0547 H   0  0  0  0  0  0  0  0  0  0  0  0
    1.5707   -2.1269    1.3132 H   0  0  0  0  0  0  0  0  0  0  0  0
    2.4038    0.3022   -0.4027 H   0  0  0  0  0  0  0  0  0  0  0  0
    3.3889   -1.1488   -0.1637 H   0  0  0  0  0  0  0  0  0  0  0  0
    3.2908   -0.5713    2.2601 H   0  0  0  0  0  0  0  0  0  0  0  0
    4.1585    1.7297    0.6358 H   0  0  0  0  0  0  0  0  0  0  0  0
    5.1932    0.3141    0.9179 H   0  0  0  0  0  0  0  0  0  0  0  0
    6.0602    4.8620    4.6228 H   0  0  0  0  0  0  0  0  0  0  0  0
    6.3944    2.0359    7.8797 H   0  0  0  0  0  0  0  0  0  0  0  0
  1  2  1  0
  1 16  1  0
  1 17  1  0
  1 18  1  0
  2  3  1  0
  2 19  1  0
  2 20  1  0
  3  4  1  0
  3 21  1  0
  4  5  1  0
  4 22  1  0
  4 23  1  0
  5  6  2  0
  5 15  1  0
  6  7  1  0
  7  8  2  0
  7 14  1  0
  8  9  1  0
  8 24  1  0
  9 10  1  0
  9 11  2  0
 11 12  1  0
 11 25  1  0
 12 13  1  0
 12 14  2  0
 14 15  1  0
M  END

