
     RDKit          3D

 46 50  0  0  0  0  0  0  0  0999 V2000
    1.1094    0.1157   -0.3800 C   0  0  0  0  0  0  0  0  0  0  0  0
    0.2881    1.1282   -0.7438 C   0  0  0  0  0  0  0  0  0  0  0  0
   -1.1544    1.0572   -0.5995 C   0  0  0  0  0  0  0  0  0  0  0  0
   -1.8444    0.0443   -0.1116 N   0  0  0  0  0  0  0  0  0  0  0  0
   -3.1640    0.4262   -0.1712 C   0  0  0  0  0  0  0  0  0  0  0  0
   -4.3268   -0.2633    0.2159 C   0  0  0  0  0  0  0  0  0  0  0  0
   -5.5549    0.3685    0.0419 C   0  0  0  0  0  0  0  0  0  0  0  0
   -5.6449    1.6672   -0.5075 C   0  0  0  0  0  0  0  0  0  0  0  0
   -4.5076    2.3731   -0.8995 C   0  0  0  0  0  0  0  0  0  0  0  0
   -3.2752    1.7345   -0.7229 C   0  0  0  0  0  0  0  0  0  0  0  0
   -1.9742    2.1067   -0.9849 N   0  0  0  0  0  0  0  0  0  0  0  0
   -1.6673    2.9835   -1.3860 H   0  0  0  0  0  0  0  0  0  0  0  0
    2.5647    0.0731   -0.4769 C   0  0  0  0  0  0  0  0  0  0  0  0
    3.3497    1.1293   -0.9881 C   0  0  0  0  0  0  0  0  0  0  0  0
    4.7329    1.0271   -1.0544 C   0  0  0  0  0  0  0  0  0  0  0  0
    5.4135   -0.1315   -0.6155 C   0  0  0  0  0  0  0  0  0  0  0  0
    6.8688   -0.1741   -0.7126 C   0  0  0  0  0  0  0  0  0  0  0  0
    7.6904   -1.1846   -0.3443 C   0  0  0  0  0  0  0  0  0  0  0  0
    9.1329   -1.1139   -0.4893 C   0  0  0  0  0  0  0  0  0  0  0  0
    9.8225   -0.1032   -0.9821 N   0  0  0  0  0  0  0  0  0  0  0  0
   11.1422   -0.4843   -0.9207 C   0  0  0  0  0  0  0  0  0  0  0  0
   12.3048    0.2040   -1.3108 C   0  0  0  0  0  0  0  0  0  0  0  0
   13.5331   -0.4266   -1.1340 C   0  0  0  0  0  0  0  0  0  0  0  0
   13.6236   -1.7229   -0.5790 C   0  0  0  0  0  0  0  0  0  0  0  0
   12.4865   -2.4274   -0.1840 C   0  0  0  0  0  0  0  0  0  0  0  0
   11.2539   -1.7901   -0.3634 C   0  0  0  0  0  0  0  0  0  0  0  0
    9.9530   -2.1617   -0.1000 N   0  0  0  0  0  0  0  0  0  0  0  0
    9.6464   -3.0368    0.3051 H   0  0  0  0  0  0  0  0  0  0  0  0
    4.6285   -1.1878   -0.1045 C   0  0  0  0  0  0  0  0  0  0  0  0
    3.2452   -1.0856   -0.0383 C   0  0  0  0  0  0  0  0  0  0  0  0
    0.6250   -0.7742    0.0349 H   0  0  0  0  0  0  0  0  0  0  0  0
    0.6892    2.0541   -1.1675 H   0  0  0  0  0  0  0  0  0  0  0  0
   -4.2511   -1.2666    0.6399 H   0  0  0  0  0  0  0  0  0  0  0  0
   -6.4728   -0.1471    0.3351 H   0  0  0  0  0  0  0  0  0  0  0  0
   -6.6281    2.1290   -0.6280 H   0  0  0  0  0  0  0  0  0  0  0  0
   -4.5825    3.3771   -1.3239 H   0  0  0  0  0  0  0  0  0  0  0  0
    2.8710    2.0458   -1.3397 H   0  0  0  0  0  0  0  0  0  0  0  0
    5.3159    1.8607   -1.4550 H   0  0  0  0  0  0  0  0  0  0  0  0
    7.3528    0.7141   -1.1316 H   0  0  0  0  0  0  0  0  0  0  0  0
    7.2898   -2.1085    0.0842 H   0  0  0  0  0  0  0  0  0  0  0  0
   12.2287    1.2055   -1.7391 H   0  0  0  0  0  0  0  0  0  0  0  0
   14.4508    0.0881   -1.4294 H   0  0  0  0  0  0  0  0  0  0  0  0
   14.6069   -2.1838   -0.4565 H   0  0  0  0  0  0  0  0  0  0  0  0
   12.5617   -3.4297    0.2446 H   0  0  0  0  0  0  0  0  0  0  0  0
    5.1072   -2.1045    0.2466 H   0  0  0  0  0  0  0  0  0  0  0  0
    2.6622   -1.9194    0.3619 H   0  0  0  0  0  0  0  0  0  0  0  0
  1  2  2  0
  1 13  1  0
  1 31  1  0
  2  3  1  0
  2 32  1  0
  3  4  2  0
  3 11  1  0
  4  5  1  0
  5  6  2  0
  5 10  1  0
  6  7  1  0
  6 33  1  0
  7  8  2  0
  7 34  1  0
  8  9  1  0
  8 35  1  0
  9 10  2  0
  9 36  1  0
 10 11  1  0
 11 12  1  0
 13 14  2  0
 13 30  1  0
 14 15  1  0
 14 37  1  0
 15 16  2  0
 15 38  1  0
 16 17  1  0
 16 29  1  0
 17 18  2  0
 17 39  1  0
 18 19  1  0
 18 40  1  0
 19 20  2  0
 19 27  1  0
 20 21  1  0
 21 22  2  0
 21 26  1  0
 22 23  1  0
 22 41  1  0
 23 24  2  0
 23 42  1  0
 24 25  1  0
 24 43  1  0
 25 26  2  0
 25 44  1  0
 26 27  1  0
 27 28  1  0
 29 30  2  0
 29 45  1  0
 30 46  1  0
M  END

