
     RDKit          3D

 48 50  0  0  0  0  0  0  0  0999 V2000
    1.3158    0.3311    0.9713 C   0  0  0  0  0  0  0  0  0  0  0  0
    2.5158    0.1124    0.0356 C   0  0  1  0  0  0  0  0  0  0  0  0
    2.0467   -0.1576   -1.4041 C   0  0  0  0  0  0  0  0  0  0  0  0
    3.3968    1.3690    0.0380 C   0  0  0  0  0  0  0  0  0  0  0  0
    2.9502    2.4261   -0.3819 O   0  0  0  0  0  0  0  0  0  0  0  0
    4.7163    1.2957    0.4496 N   0  0  0  0  0  0  0  0  0  0  0  0
    5.5241    2.5253    0.3465 C   0  0  0  0  0  0  0  0  0  0  0  0
    6.9493    2.0331    0.5834 C   0  0  0  0  0  0  0  0  0  0  0  0
    6.7498    0.9312    1.6242 C   0  0  0  0  0  0  0  0  0  0  0  0
    5.3960    0.2422    1.2485 C   0  0  1  0  0  0  0  0  0  0  0  0
    4.6575   -0.1628    2.5334 C   0  0  0  0  0  0  0  0  0  0  0  0
    5.7296   -1.0360    0.4261 C   0  0  0  0  0  0  0  0  0  0  0  0
    6.0169   -2.0751    0.9938 O   0  0  0  0  0  0  0  0  0  0  0  0
    5.7390   -0.8640   -0.9337 N   0  0  0  0  0  0  0  0  0  0  0  0
    6.0719   -1.7866   -1.9422 C   0  0  0  0  0  0  0  0  0  0  0  0
    6.4723   -3.1084   -1.6792 C   0  0  0  0  0  0  0  0  0  0  0  0
    6.7833   -3.9645   -2.7357 C   0  0  0  0  0  0  0  0  0  0  0  0
    6.7170   -3.5203   -4.0615 C   0  0  0  0  0  0  0  0  0  0  0  0
    7.0537   -4.3839   -5.1378 N   0  0  0  0  0  0  0  0  0  0  0  0
    7.7987   -5.5255   -5.1367 C   0  0  0  0  0  0  0  0  0  0  0  0
    7.8837   -6.0177   -6.3547 N   0  0  0  0  0  0  0  0  0  0  0  0
    7.1655   -5.1264   -7.0907 C   0  0  0  0  0  0  0  0  0  0  0  0
    6.6488   -4.1240   -6.4025 N   0  0  0  0  0  0  0  0  0  0  0  0
    6.3134   -2.2060   -4.3303 C   0  0  0  0  0  0  0  0  0  0  0  0
    5.9927   -1.3540   -3.2791 C   0  0  0  0  0  0  0  0  0  0  0  0
    0.6405   -0.5384    0.9437 H   0  0  0  0  0  0  0  0  0  0  0  0
    0.7526    1.2219    0.6548 H   0  0  0  0  0  0  0  0  0  0  0  0
    1.6303    0.4842    2.0157 H   0  0  0  0  0  0  0  0  0  0  0  0
    3.0851   -0.7624    0.3800 H   0  0  0  0  0  0  0  0  0  0  0  0
    1.5145    0.7201   -1.7995 H   0  0  0  0  0  0  0  0  0  0  0  0
    1.3681   -1.0245   -1.4303 H   0  0  0  0  0  0  0  0  0  0  0  0
    2.8919   -0.3761   -2.0763 H   0  0  0  0  0  0  0  0  0  0  0  0
    5.2105    3.2587    1.1117 H   0  0  0  0  0  0  0  0  0  0  0  0
    5.3592    3.0014   -0.6297 H   0  0  0  0  0  0  0  0  0  0  0  0
    7.6208    2.8322    0.9300 H   0  0  0  0  0  0  0  0  0  0  0  0
    7.3762    1.6219   -0.3461 H   0  0  0  0  0  0  0  0  0  0  0  0
    6.6435    1.3773    2.6262 H   0  0  0  0  0  0  0  0  0  0  0  0
    7.5699    0.2013    1.6793 H   0  0  0  0  0  0  0  0  0  0  0  0
    4.4048    0.7365    3.1147 H   0  0  0  0  0  0  0  0  0  0  0  0
    5.3129   -0.8065    3.1353 H   0  0  0  0  0  0  0  0  0  0  0  0
    3.7376   -0.7282    2.3389 H   0  0  0  0  0  0  0  0  0  0  0  0
    5.4341    0.0519   -1.2461 H   0  0  0  0  0  0  0  0  0  0  0  0
    6.5225   -3.4559   -0.6501 H   0  0  0  0  0  0  0  0  0  0  0  0
    7.0635   -4.9947   -2.5094 H   0  0  0  0  0  0  0  0  0  0  0  0
    8.2622   -5.9350   -4.2409 H   0  0  0  0  0  0  0  0  0  0  0  0
    7.0170   -5.2176   -8.1667 H   0  0  0  0  0  0  0  0  0  0  0  0
    6.2515   -1.8711   -5.3654 H   0  0  0  0  0  0  0  0  0  0  0  0
    5.6790   -0.3296   -3.4997 H   0  0  0  0  0  0  0  0  0  0  0  0
  1  2  1  0
  1 26  1  0
  1 27  1  0
  1 28  1  0
  2  3  1  0
  2  4  1  0
  2 29  1  1
  3 30  1  0
  3 31  1  0
  3 32  1  0
  4  5  2  0
  4  6  1  0
  6  7  1  0
  6 10  1  0
  7  8  1  0
  7 33  1  0
  7 34  1  0
  8  9  1  0
  8 35  1  0
  8 36  1  0
  9 10  1  0
  9 37  1  0
  9 38  1  0
 10 11  1  0
 10 12  1  6
 11 39  1  0
 11 40  1  0
 11 41  1  0
 12 13  2  0
 12 14  1  0
 14 15  1  0
 14 42  1  0
 15 16  2  0
 15 25  1  0
 16 17  1  0
 16 43  1  0
 17 18  2  0
 17 44  1  0
 18 19  1  0
 18 24  1  0
 19 20  1  0
 19 23  1  0
 20 21  2  0
 20 45  1  0
 21 22  1  0
 22 23  2  0
 22 46  1  0
 24 25  2  0
 24 47  1  0
 25 48  1  0
M  END

