
     RDKit          3D

 46 48  0  0  0  0  0  0  0  0999 V2000
    6.1448   -2.4259   -3.1679 O   0  0  0  0  0  0  0  0  0  0  0  0
    6.0867   -2.3249   -1.9724 C   0  0  0  0  0  0  0  0  0  0  0  0
    5.4406   -3.2698   -1.2484 O   0  0  0  0  0  0  0  0  0  0  0  0
    6.7361   -1.1958   -1.1585 C   0  0  1  0  0  0  0  0  0  0  0  0
    7.3672   -0.1364   -2.0790 C   0  0  0  0  0  0  0  0  0  0  0  0
    6.3193    0.7566   -2.7621 C   0  0  0  0  0  0  0  0  0  0  0  0
    5.3477    1.4145   -1.7561 C   0  0  2  0  0  0  0  0  0  0  0  0
    5.9538    2.4677   -0.9304 N   0  0  0  0  0  0  0  0  0  0  0  0
    6.0929    3.7817   -1.5525 C   0  0  1  0  0  0  0  0  0  0  0  0
    4.7506    4.5017   -1.6387 C   0  0  0  0  0  0  0  0  0  0  0  0
    3.8506    4.4707   -0.5615 C   0  0  0  0  0  0  0  0  0  0  0  0
    2.6461    5.1737   -0.6049 C   0  0  0  0  0  0  0  0  0  0  0  0
    2.3286    5.9213   -1.7437 C   0  0  0  0  0  0  0  0  0  0  0  0
    0.8174    6.8034   -1.8081 Cl  0  0  0  0  0  0  0  0  0  0  0  0
    3.2021    5.9637   -2.8322 C   0  0  0  0  0  0  0  0  0  0  0  0
    4.4041    5.2524   -2.7706 C   0  0  0  0  0  0  0  0  0  0  0  0
    7.1051    4.6090   -0.7482 C   0  0  1  0  0  0  0  0  0  0  0  0
    8.5998    4.1744   -0.7431 C   0  0  0  0  0  0  0  0  0  0  0  0
    8.9929    5.6727   -0.7997 C   0  0  0  0  0  0  0  0  0  0  0  0
    7.5538    5.9962   -1.2761 C   0  0  0  0  0  0  0  0  0  0  0  0
    4.7092    0.3312   -0.8661 C   0  0  0  0  0  0  0  0  0  0  0  0
    5.7611   -0.5311   -0.1581 C   0  0  0  0  0  0  0  0  0  0  0  0
    5.4797   -3.0590   -0.3048 H   0  0  0  0  0  0  0  0  0  0  0  0
    7.5406   -1.6901   -0.5808 H   0  0  0  0  0  0  0  0  0  0  0  0
    7.9867   -0.6327   -2.8401 H   0  0  0  0  0  0  0  0  0  0  0  0
    8.0515    0.4809   -1.4698 H   0  0  0  0  0  0  0  0  0  0  0  0
    5.7437    0.1434   -3.4736 H   0  0  0  0  0  0  0  0  0  0  0  0
    6.8256    1.5324   -3.3607 H   0  0  0  0  0  0  0  0  0  0  0  0
    4.5358    1.8986   -2.3222 H   0  0  0  0  0  0  0  0  0  0  0  0
    6.8537    2.1687   -0.5621 H   0  0  0  0  0  0  0  0  0  0  0  0
    6.4928    3.7123   -2.5889 H   0  0  0  0  0  0  0  0  0  0  0  0
    4.1022    3.8703    0.3154 H   0  0  0  0  0  0  0  0  0  0  0  0
    1.9496    5.1449    0.2351 H   0  0  0  0  0  0  0  0  0  0  0  0
    2.9383    6.5425   -3.7190 H   0  0  0  0  0  0  0  0  0  0  0  0
    5.0812    5.2797   -3.6292 H   0  0  0  0  0  0  0  0  0  0  0  0
    6.7348    4.6982    0.2872 H   0  0  0  0  0  0  0  0  0  0  0  0
    8.8684    3.6490   -1.6752 H   0  0  0  0  0  0  0  0  0  0  0  0
    8.9646    3.5814    0.1108 H   0  0  0  0  0  0  0  0  0  0  0  0
    9.8252    5.9546   -1.4625 H   0  0  0  0  0  0  0  0  0  0  0  0
    9.1952    6.0802    0.2031 H   0  0  0  0  0  0  0  0  0  0  0  0
    7.4926    6.0485   -2.3753 H   0  0  0  0  0  0  0  0  0  0  0  0
    7.0567    6.8854   -0.8605 H   0  0  0  0  0  0  0  0  0  0  0  0
    4.0695   -0.3152   -1.4931 H   0  0  0  0  0  0  0  0  0  0  0  0
    4.0542    0.8135   -0.1245 H   0  0  0  0  0  0  0  0  0  0  0  0
    5.2663   -1.2782    0.4884 H   0  0  0  0  0  0  0  0  0  0  0  0
    6.3483    0.0968    0.5338 H   0  0  0  0  0  0  0  0  0  0  0  0
  1  2  2  0
  2  3  1  0
  2  4  1  0
  3 23  1  0
  4  5  1  0
  4 22  1  0
  4 24  1  1
  5  6  1  0
  5 25  1  0
  5 26  1  0
  6  7  1  0
  6 27  1  0
  6 28  1  0
  7  8  1  0
  7 21  1  0
  7 29  1  6
  8  9  1  0
  8 30  1  0
  9 10  1  0
  9 17  1  0
  9 31  1  6
 10 11  2  0
 10 16  1  0
 11 12  1  0
 11 32  1  0
 12 13  2  0
 12 33  1  0
 13 14  1  0
 13 15  1  0
 15 16  2  0
 15 34  1  0
 16 35  1  0
 17 18  1  0
 17 20  1  0
 17 36  1  1
 18 19  1  0
 18 37  1  0
 18 38  1  0
 19 20  1  0
 19 39  1  0
 19 40  1  0
 20 41  1  0
 20 42  1  0
 21 22  1  0
 21 43  1  0
 21 44  1  0
 22 45  1  0
 22 46  1  0
M  END

