
     RDKit          3D

 29 30  0  0  0  0  0  0  0  0999 V2000
    2.1330   -0.5647    2.7885 C   0  0  0  0  0  0  0  0  0  0  0  0
    3.1808   -0.2867    1.8103 C   0  0  0  0  0  0  0  0  0  0  0  0
    4.0598   -0.0557    1.0071 C   0  0  0  0  0  0  0  0  0  0  0  0
    5.1011    0.2351    0.0117 C   0  0  0  0  0  0  0  0  0  0  0  0
    5.8811   -0.9342   -0.3652 N   0  0  0  0  0  0  0  0  0  0  0  0
    5.1808   -1.9996   -1.0882 C   0  0  0  0  0  0  0  0  0  0  0  0
    5.8402   -2.1461   -2.4969 C   0  0  1  0  0  0  0  0  0  0  0  0
    4.9141   -1.7984   -3.6767 C   0  0  0  0  0  0  0  0  0  0  0  0
    4.9455   -0.2650   -3.7349 C   0  0  0  0  0  0  0  0  0  0  0  0
    6.4189    0.0780   -3.4415 C   0  0  0  0  0  0  0  0  0  0  0  0
    6.9624   -1.0580   -2.5229 C   0  0  1  0  0  0  0  0  0  0  0  0
    7.1574   -0.7026   -1.0356 C   0  0  0  0  0  0  0  0  0  0  0  0
    1.6133    0.3601    3.0899 H   0  0  0  0  0  0  0  0  0  0  0  0
    2.5464   -1.0258    3.7010 H   0  0  0  0  0  0  0  0  0  0  0  0
    1.3737   -1.2534    2.3817 H   0  0  0  0  0  0  0  0  0  0  0  0
    5.7940    0.9782    0.4418 H   0  0  0  0  0  0  0  0  0  0  0  0
    4.6122    0.7444   -0.8536 H   0  0  0  0  0  0  0  0  0  0  0  0
    4.1050   -1.7673   -1.1590 H   0  0  0  0  0  0  0  0  0  0  0  0
    5.2538   -2.9563   -0.5392 H   0  0  0  0  0  0  0  0  0  0  0  0
    6.2537   -3.1604   -2.6046 H   0  0  0  0  0  0  0  0  0  0  0  0
    3.8993   -2.2149   -3.5672 H   0  0  0  0  0  0  0  0  0  0  0  0
    5.3329   -2.2138   -4.6103 H   0  0  0  0  0  0  0  0  0  0  0  0
    4.2875    0.1538   -2.9540 H   0  0  0  0  0  0  0  0  0  0  0  0
    4.5913    0.1410   -4.6957 H   0  0  0  0  0  0  0  0  0  0  0  0
    6.5412    1.0776   -2.9940 H   0  0  0  0  0  0  0  0  0  0  0  0
    6.9889    0.0876   -4.3851 H   0  0  0  0  0  0  0  0  0  0  0  0
    7.9009   -1.4555   -2.9393 H   0  0  0  0  0  0  0  0  0  0  0  0
    7.5035    0.3315   -0.8796 H   0  0  0  0  0  0  0  0  0  0  0  0
    7.9335   -1.3656   -0.6047 H   0  0  0  0  0  0  0  0  0  0  0  0
  1  2  1  0
  1 13  1  0
  1 14  1  0
  1 15  1  0
  2  3  3  0
  3  4  1  0
  4  5  1  0
  4 16  1  0
  4 17  1  0
  5  6  1  0
  5 12  1  0
  6  7  1  0
  6 18  1  0
  6 19  1  0
  7  8  1  0
  7 11  1  0
  7 20  1  6
  8  9  1  0
  8 21  1  0
  8 22  1  0
  9 10  1  0
  9 23  1  0
  9 24  1  0
 10 11  1  0
 10 25  1  0
 10 26  1  0
 11 12  1  0
 11 27  1  6
 12 28  1  0
 12 29  1  0
M  END

