
     RDKit          3D

 51 51  0  0  0  0  0  0  0  0999 V2000
    5.2329    0.4888   -2.2185 C   0  0  0  0  0  0  0  0  0  0  0  0
    4.4037    0.2012   -0.9631 C   0  0  0  0  0  0  0  0  0  0  0  0
    5.1817   -0.4282    0.2136 C   0  0  1  0  0  0  0  0  0  0  0  0
    6.3725    0.4606    0.6076 C   0  0  0  0  0  0  0  0  0  0  0  0
    4.2693   -0.7398    1.4428 C   0  0  1  0  0  0  0  0  0  0  0  0
    2.9129   -1.3476    1.0493 C   0  0  0  0  0  0  0  0  0  0  0  0
    4.9884   -1.5949    2.5091 C   0  0  1  0  0  0  0  0  0  0  0  0
    4.3549   -1.7754    3.9150 C   0  0  0  0  0  0  0  0  0  0  0  0
    4.9241   -3.2145    3.9495 C   0  0  0  0  0  0  0  0  0  0  0  0
    5.0987   -3.1509    2.4061 C   0  0  2  0  0  0  0  0  0  0  0  0
    6.3458   -3.7707    1.7760 C   0  0  0  0  0  0  0  0  0  0  0  0
    6.4190   -5.3127    1.8764 C   0  0  1  0  0  0  0  0  0  0  0  0
    5.4199   -5.9523    0.8971 C   0  0  0  0  0  0  0  0  0  0  0  0
    7.8802   -5.8818    1.7466 C   0  0  1  0  0  0  0  0  0  0  0  0
    8.7208   -5.4410    2.9633 C   0  0  0  0  0  0  0  0  0  0  0  0
    7.8517   -7.4246    1.7435 C   0  0  0  0  0  0  0  0  0  0  0  0
    8.5721   -5.3969    0.4571 C   0  0  0  0  0  0  0  0  0  0  0  0
    4.5857    0.8250   -3.0445 H   0  0  0  0  0  0  0  0  0  0  0  0
    5.7637   -0.4153   -2.5632 H   0  0  0  0  0  0  0  0  0  0  0  0
    5.9876    1.2741   -2.0580 H   0  0  0  0  0  0  0  0  0  0  0  0
    3.5794   -0.4689   -1.2508 H   0  0  0  0  0  0  0  0  0  0  0  0
    3.9255    1.1372   -0.6164 H   0  0  0  0  0  0  0  0  0  0  0  0
    5.5831   -1.3954   -0.1478 H   0  0  0  0  0  0  0  0  0  0  0  0
    6.0254    1.4640    0.9110 H   0  0  0  0  0  0  0  0  0  0  0  0
    7.0758    0.5917   -0.2280 H   0  0  0  0  0  0  0  0  0  0  0  0
    6.9506    0.0441    1.4447 H   0  0  0  0  0  0  0  0  0  0  0  0
    4.0584    0.2332    1.9307 H   0  0  0  0  0  0  0  0  0  0  0  0
    3.0316   -2.2254    0.3925 H   0  0  0  0  0  0  0  0  0  0  0  0
    2.2763   -0.6239    0.5206 H   0  0  0  0  0  0  0  0  0  0  0  0
    2.3504   -1.6752    1.9370 H   0  0  0  0  0  0  0  0  0  0  0  0
    6.0060   -1.1999    2.6563 H   0  0  0  0  0  0  0  0  0  0  0  0
    3.2541   -1.7741    3.8832 H   0  0  0  0  0  0  0  0  0  0  0  0
    4.6756   -1.0768    4.7040 H   0  0  0  0  0  0  0  0  0  0  0  0
    4.2808   -4.0072    4.3620 H   0  0  0  0  0  0  0  0  0  0  0  0
    5.8992   -3.2580    4.4626 H   0  0  0  0  0  0  0  0  0  0  0  0
    4.1908   -3.5520    1.9272 H   0  0  0  0  0  0  0  0  0  0  0  0
    7.2242   -3.3160    2.2629 H   0  0  0  0  0  0  0  0  0  0  0  0
    6.4017   -3.4730    0.7135 H   0  0  0  0  0  0  0  0  0  0  0  0
    6.0912   -5.5871    2.8971 H   0  0  0  0  0  0  0  0  0  0  0  0
    5.7305   -5.8094   -0.1514 H   0  0  0  0  0  0  0  0  0  0  0  0
    4.4233   -5.4971    1.0030 H   0  0  0  0  0  0  0  0  0  0  0  0
    5.2963   -7.0314    1.0668 H   0  0  0  0  0  0  0  0  0  0  0  0
    8.2711   -5.7948    3.9060 H   0  0  0  0  0  0  0  0  0  0  0  0
    8.8244   -4.3475    3.0311 H   0  0  0  0  0  0  0  0  0  0  0  0
    9.7385   -5.8601    2.9024 H   0  0  0  0  0  0  0  0  0  0  0  0
    7.2970   -7.8178    2.6121 H   0  0  0  0  0  0  0  0  0  0  0  0
    8.8766   -7.8271    1.7946 H   0  0  0  0  0  0  0  0  0  0  0  0
    7.3868   -7.8325    0.8334 H   0  0  0  0  0  0  0  0  0  0  0  0
    8.7105   -4.3046    0.4491 H   0  0  0  0  0  0  0  0  0  0  0  0
    7.9999   -5.6708   -0.4437 H   0  0  0  0  0  0  0  0  0  0  0  0
    9.5707   -5.8543    0.3615 H   0  0  0  0  0  0  0  0  0  0  0  0
  1  2  1  0
  1 18  1  0
  1 19  1  0
  1 20  1  0
  2  3  1  0
  2 21  1  0
  2 22  1  0
  3  4  1  0
  3  5  1  0
  3 23  1  6
  4 24  1  0
  4 25  1  0
  4 26  1  0
  5  6  1  0
  5  7  1  0
  5 27  1  1
  6 28  1  0
  6 29  1  0
  6 30  1  0
  7  8  1  0
  7 10  1  0
  7 31  1  1
  8  9  1  0
  8 32  1  0
  8 33  1  0
  9 10  1  0
  9 34  1  0
  9 35  1  0
 10 11  1  0
 10 36  1  6
 11 12  1  0
 11 37  1  0
 11 38  1  0
 12 13  1  0
 12 14  1  0
 12 39  1  1
 13 40  1  0
 13 41  1  0
 13 42  1  0
 14 15  1  1
 14 16  1  0
 14 17  1  0
 15 43  1  0
 15 44  1  0
 15 45  1  0
 16 46  1  0
 16 47  1  0
 16 48  1  0
 17 49  1  0
 17 50  1  0
 17 51  1  0
M  END

