
     RDKit          3D

 29 30  0  0  0  0  0  0  0  0999 V2000
    1.8119    1.0125   -0.1430 C   0  0  0  0  0  0  0  0  0  0  0  0
    3.0668    0.1755    0.1025 C   0  0  2  0  0  0  0  0  0  0  0  0
    3.1858    0.0454    1.1977 H   0  0  0  0  0  0  0  0  0  0  0  0
    4.1566    0.9066   -0.4296 O   0  0  0  0  0  0  0  0  0  0  0  0
    2.9480   -1.2108   -0.5175 C   0  0  0  0  0  0  0  0  0  0  0  0
    3.3954   -1.4572   -1.8281 C   0  0  0  0  0  0  0  0  0  0  0  0
    3.2299   -2.7340   -2.3589 C   0  0  0  0  0  0  0  0  0  0  0  0
    2.6679   -3.7460   -1.6870 N   0  0  0  0  0  0  0  0  0  0  0  0
    2.2496   -3.5057   -0.4587 C   0  0  0  0  0  0  0  0  0  0  0  0
    1.6915   -4.5200    0.2684 O   0  0  0  0  0  0  0  0  0  0  0  0
    1.4126   -5.7262   -0.3333 C   0  0  0  0  0  0  0  0  0  0  0  0
    2.0419   -6.8864    0.1162 C   0  0  0  0  0  0  0  0  0  0  0  0
    1.7115   -8.1342   -0.4210 C   0  0  0  0  0  0  0  0  0  0  0  0
    0.7472   -8.1970   -1.4231 C   0  0  0  0  0  0  0  0  0  0  0  0
    0.4229   -9.3846   -1.9518 F   0  0  0  0  0  0  0  0  0  0  0  0
    0.1000   -7.0550   -1.8947 C   0  0  0  0  0  0  0  0  0  0  0  0
    0.4391   -5.8275   -1.3369 C   0  0  0  0  0  0  0  0  0  0  0  0
   -0.1805   -4.7213   -1.7545 F   0  0  0  0  0  0  0  0  0  0  0  0
    2.3628   -2.2635    0.1847 C   0  0  0  0  0  0  0  0  0  0  0  0
    1.6488    1.1439   -1.2237 H   0  0  0  0  0  0  0  0  0  0  0  0
    1.9373    2.0058    0.3138 H   0  0  0  0  0  0  0  0  0  0  0  0
    0.9237    0.5286    0.2891 H   0  0  0  0  0  0  0  0  0  0  0  0
    4.9696    0.4146   -0.2522 H   0  0  0  0  0  0  0  0  0  0  0  0
    3.8651   -0.6610   -2.4070 H   0  0  0  0  0  0  0  0  0  0  0  0
    3.5682   -2.9586   -3.3770 H   0  0  0  0  0  0  0  0  0  0  0  0
    2.7954   -6.7954    0.9005 H   0  0  0  0  0  0  0  0  0  0  0  0
    2.1931   -9.0507   -0.0772 H   0  0  0  0  0  0  0  0  0  0  0  0
   -0.6577   -7.1175   -2.6764 H   0  0  0  0  0  0  0  0  0  0  0  0
    1.9992   -2.1510    1.2084 H   0  0  0  0  0  0  0  0  0  0  0  0
  1  2  1  0
  1 20  1  0
  1 21  1  0
  1 22  1  0
  2  3  1  1
  2  4  1  0
  2  5  1  0
  4 23  1  0
  5  6  2  0
  5 19  1  0
  6  7  1  0
  6 24  1  0
  7  8  2  0
  7 25  1  0
  8  9  1  0
  9 10  1  0
  9 19  2  0
 10 11  1  0
 11 12  2  0
 11 17  1  0
 12 13  1  0
 12 26  1  0
 13 14  2  0
 13 27  1  0
 14 15  1  0
 14 16  1  0
 16 17  2  0
 16 28  1  0
 17 18  1  0
 19 29  1  0
M  END

