
     RDKit          3D

 44 47  0  0  0  0  0  0  0  0999 V2000
    5.6651    7.6178    0.7027 F   0  0  0  0  0  0  0  0  0  0  0  0
    6.1678    6.4278    0.3275 C   0  0  1  0  0  0  0  0  0  0  0  0
    5.5641    6.0966   -0.8307 F   0  0  0  0  0  0  0  0  0  0  0  0
    7.4709    6.6063    0.0528 F   0  0  0  0  0  0  0  0  0  0  0  0
    5.9538    5.3717    1.3848 C   0  0  0  0  0  0  0  0  0  0  0  0
    4.8252    5.4299    2.2108 C   0  0  0  0  0  0  0  0  0  0  0  0
    4.6050    4.4216    3.1533 C   0  0  0  0  0  0  0  0  0  0  0  0
    5.5031    3.3621    3.2745 C   0  0  0  0  0  0  0  0  0  0  0  0
    6.6387    3.3043    2.4482 C   0  0  0  0  0  0  0  0  0  0  0  0
    7.6024    2.1989    2.5657 C   0  0  0  0  0  0  0  0  0  0  0  0
    7.4657    1.2167    3.4282 N   0  0  0  0  0  0  0  0  0  0  0  0
    8.5750    0.4219    3.2026 O   0  0  0  0  0  0  0  0  0  0  0  0
    9.2785    0.9981    2.2174 C   0  0  0  0  0  0  0  0  0  0  0  0
   10.5278    0.3474    1.7426 C   0  0  0  0  0  0  0  0  0  0  0  0
   10.2035   -1.1492    0.7126 S   0  0  0  0  0  0  0  0  0  0  0  0
   10.4210   -2.3939    1.9489 C   0  0  0  0  0  0  0  0  0  0  0  0
   10.9715   -2.2305    3.1060 N   0  0  0  0  0  0  0  0  0  0  0  0
   11.0557   -3.3659    3.8520 N   0  0  0  0  0  0  0  0  0  0  0  0
   10.5508   -4.4090    3.2513 C   0  0  0  0  0  0  0  0  0  0  0  0
   10.4748   -5.6514    3.7994 N   0  0  0  0  0  0  0  0  0  0  0  0
   11.1196   -5.9498    5.0744 C   0  0  0  0  0  0  0  0  0  0  0  0
   10.5843   -7.2301    5.6783 C   0  0  0  0  0  0  0  0  0  0  0  0
   11.4602   -8.2308    6.1216 C   0  0  0  0  0  0  0  0  0  0  0  0
   10.9699   -9.4029    6.7067 C   0  0  0  0  0  0  0  0  0  0  0  0
    9.5930   -9.5918    6.8484 C   0  0  0  0  0  0  0  0  0  0  0  0
    8.7094   -8.6016    6.4044 C   0  0  0  0  0  0  0  0  0  0  0  0
    9.2014   -7.4299    5.8257 C   0  0  0  0  0  0  0  0  0  0  0  0
    9.8980   -4.0548    1.6383 S   0  0  0  0  0  0  0  0  0  0  0  0
    8.7325    2.0944    1.7846 N   0  0  0  0  0  0  0  0  0  0  0  0
    6.8607    4.3151    1.5026 C   0  0  0  0  0  0  0  0  0  0  0  0
    4.1272    6.2641    2.1199 H   0  0  0  0  0  0  0  0  0  0  0  0
    3.7262    4.4662    3.8006 H   0  0  0  0  0  0  0  0  0  0  0  0
    5.3379    2.5726    4.0098 H   0  0  0  0  0  0  0  0  0  0  0  0
   11.1549    0.0170    2.5832 H   0  0  0  0  0  0  0  0  0  0  0  0
   11.0736    1.0541    1.1066 H   0  0  0  0  0  0  0  0  0  0  0  0
   10.3027   -6.4326    3.1780 H   0  0  0  0  0  0  0  0  0  0  0  0
   10.9299   -5.0908    5.7379 H   0  0  0  0  0  0  0  0  0  0  0  0
   12.2180   -6.0125    4.9626 H   0  0  0  0  0  0  0  0  0  0  0  0
   12.5392   -8.0910    6.0087 H   0  0  0  0  0  0  0  0  0  0  0  0
   11.6673  -10.1723    7.0477 H   0  0  0  0  0  0  0  0  0  0  0  0
    9.2077  -10.5082    7.3025 H   0  0  0  0  0  0  0  0  0  0  0  0
    7.6309   -8.7417    6.5139 H   0  0  0  0  0  0  0  0  0  0  0  0
    8.5082   -6.6576    5.4818 H   0  0  0  0  0  0  0  0  0  0  0  0
    7.7477    4.2672    0.8702 H   0  0  0  0  0  0  0  0  0  0  0  0
  2  1  1  1
  2  3  1  0
  2  4  1  0
  2  5  1  0
  5  6  2  0
  5 30  1  0
  6  7  1  0
  6 31  1  0
  7  8  2  0
  7 32  1  0
  8  9  1  0
  8 33  1  0
  9 10  1  0
  9 30  2  0
 10 11  2  0
 10 29  1  0
 11 12  1  0
 12 13  1  0
 13 14  1  0
 13 29  2  0
 14 15  1  0
 14 34  1  0
 14 35  1  0
 15 16  1  0
 16 17  2  0
 16 28  1  0
 17 18  1  0
 18 19  2  0
 19 20  1  0
 19 28  1  0
 20 21  1  0
 20 36  1  0
 21 22  1  0
 21 37  1  0
 21 38  1  0
 22 23  2  0
 22 27  1  0
 23 24  1  0
 23 39  1  0
 24 25  2  0
 24 40  1  0
 25 26  1  0
 25 41  1  0
 26 27  2  0
 26 42  1  0
 27 43  1  0
 30 44  1  0
M  END

