
     RDKit          3D

 50 53  0  0  0  0  0  0  0  0999 V2000
    5.9441    2.7595    4.4388 C   0  0  0  0  0  0  0  0  0  0  0  0
    6.2247    1.9593    3.1901 C   0  0  0  0  0  0  0  0  0  0  0  0
    7.4579    1.3262    2.9817 C   0  0  0  0  0  0  0  0  0  0  0  0
    7.7284    0.5958    1.8225 C   0  0  0  0  0  0  0  0  0  0  0  0
    6.7443    0.4666    0.8337 C   0  0  0  0  0  0  0  0  0  0  0  0
    6.9753   -0.2235   -0.3825 N   0  0  0  0  0  0  0  0  0  0  0  0
    7.8613   -1.6479   -0.5643 S   0  0  1  0  0  0  0  0  0  0  0  0
    8.0680   -2.2758    0.7405 O   0  0  0  0  0  0  0  0  0  0  0  0
    7.1929   -2.3634   -1.6540 O   0  0  0  0  0  0  0  0  0  0  0  0
    9.4750   -1.1023   -1.1704 C   0  0  0  0  0  0  0  0  0  0  0  0
    9.7062    0.2472   -1.4181 C   0  0  0  0  0  0  0  0  0  0  0  0
   10.9566    0.6658   -1.9030 C   0  0  0  0  0  0  0  0  0  0  0  0
   11.1819    2.0880   -2.1566 C   0  0  0  0  0  0  0  0  0  0  0  0
   10.3482    3.0792   -2.0083 N   0  0  0  0  0  0  0  0  0  0  0  0
   11.0948    4.1695   -2.3928 C   0  0  0  0  0  0  0  0  0  0  0  0
   10.5396    5.5704   -2.3636 C   0  0  1  0  0  0  0  0  0  0  0  0
    9.1738    5.6405   -2.8670 N   0  0  0  0  0  0  0  0  0  0  0  0
   10.6425    6.3126   -0.9894 C   0  0  0  0  0  0  0  0  0  0  0  0
   11.0978    7.5834   -1.7474 C   0  0  0  0  0  0  0  0  0  0  0  0
   11.4154    6.6973   -2.9773 C   0  0  0  0  0  0  0  0  0  0  0  0
   12.3174    3.8717   -2.7597 N   0  0  0  0  0  0  0  0  0  0  0  0
   12.3817    2.4875   -2.6049 O   0  0  0  0  0  0  0  0  0  0  0  0
   11.9561   -0.2898   -2.1351 C   0  0  0  0  0  0  0  0  0  0  0  0
   11.7020   -1.6379   -1.8870 C   0  0  0  0  0  0  0  0  0  0  0  0
   10.4648   -2.0879   -1.4015 C   0  0  0  0  0  0  0  0  0  0  0  0
   10.2287   -3.5539   -1.1479 C   0  0  0  0  0  0  0  0  0  0  0  0
    5.4989    1.0847    1.0306 C   0  0  0  0  0  0  0  0  0  0  0  0
    5.2524    1.8238    2.1860 C   0  0  0  0  0  0  0  0  0  0  0  0
    6.7824    2.7060    5.1489 H   0  0  0  0  0  0  0  0  0  0  0  0
    5.0414    2.3949    4.9568 H   0  0  0  0  0  0  0  0  0  0  0  0
    5.7722    3.8241    4.2049 H   0  0  0  0  0  0  0  0  0  0  0  0
    8.2378    1.4062    3.7441 H   0  0  0  0  0  0  0  0  0  0  0  0
    8.6982    0.1136    1.7022 H   0  0  0  0  0  0  0  0  0  0  0  0
    6.2162   -0.2211   -1.0597 H   0  0  0  0  0  0  0  0  0  0  0  0
    8.9268    0.9877   -1.2404 H   0  0  0  0  0  0  0  0  0  0  0  0
    8.5964    4.9569   -2.3736 H   0  0  0  0  0  0  0  0  0  0  0  0
    9.1524    5.3727   -3.8527 H   0  0  0  0  0  0  0  0  0  0  0  0
   11.4389    5.8933   -0.3565 H   0  0  0  0  0  0  0  0  0  0  0  0
    9.7061    6.3610   -0.4141 H   0  0  0  0  0  0  0  0  0  0  0  0
   11.9329    8.1517   -1.3120 H   0  0  0  0  0  0  0  0  0  0  0  0
   10.2589    8.2669   -1.9382 H   0  0  0  0  0  0  0  0  0  0  0  0
   12.4729    6.4041   -3.0274 H   0  0  0  0  0  0  0  0  0  0  0  0
   11.0932    7.0570   -3.9663 H   0  0  0  0  0  0  0  0  0  0  0  0
   12.9303    0.0259   -2.5125 H   0  0  0  0  0  0  0  0  0  0  0  0
   12.4877   -2.3734   -2.0767 H   0  0  0  0  0  0  0  0  0  0  0  0
   11.0976   -4.1499   -1.4589 H   0  0  0  0  0  0  0  0  0  0  0  0
    9.3412   -3.9068   -1.6953 H   0  0  0  0  0  0  0  0  0  0  0  0
   10.0312   -3.7384   -0.0808 H   0  0  0  0  0  0  0  0  0  0  0  0
    4.7192    0.9857    0.2699 H   0  0  0  0  0  0  0  0  0  0  0  0
    4.2749    2.2986    2.3116 H   0  0  0  0  0  0  0  0  0  0  0  0
  1  2  1  0
  1 29  1  0
  1 30  1  0
  1 31  1  0
  2  3  2  0
  2 28  1  0
  3  4  1  0
  3 32  1  0
  4  5  2  0
  4 33  1  0
  5  6  1  0
  5 27  1  0
  7  6  1  1
  6 34  1  0
  7  8  2  0
  7  9  2  0
  7 10  1  0
 10 11  2  0
 10 25  1  0
 11 12  1  0
 11 35  1  0
 12 13  1  0
 12 23  2  0
 13 14  2  0
 13 22  1  0
 14 15  1  0
 15 16  1  0
 15 21  2  0
 16 17  1  6
 16 18  1  0
 16 20  1  0
 17 36  1  0
 17 37  1  0
 18 19  1  0
 18 38  1  0
 18 39  1  0
 19 20  1  0
 19 40  1  0
 19 41  1  0
 20 42  1  0
 20 43  1  0
 21 22  1  0
 23 24  1  0
 23 44  1  0
 24 25  2  0
 24 45  1  0
 25 26  1  0
 26 46  1  0
 26 47  1  0
 26 48  1  0
 27 28  2  0
 27 49  1  0
 28 50  1  0
M  END

