
     RDKit          3D

 97 99  0  0  0  0  0  0  0  0999 V2000
    5.4174  -26.1929  -11.2671 C   0  0  0  0  0  0  0  0  0  0  0  0
    5.7384  -24.8993  -12.0170 C   0  0  0  0  0  0  0  0  0  0  0  0
    7.1647  -24.3918  -11.7827 C   0  0  0  0  0  0  0  0  0  0  0  0
    7.4944  -23.0964  -12.5300 C   0  0  0  0  0  0  0  0  0  0  0  0
    8.9209  -22.5904  -12.2961 C   0  0  0  0  0  0  0  0  0  0  0  0
    9.2502  -21.2947  -13.0433 C   0  0  0  0  0  0  0  0  0  0  0  0
   10.6775  -20.7912  -12.8102 C   0  0  0  0  0  0  0  0  0  0  0  0
   11.0058  -19.4948  -13.5571 C   0  0  0  0  0  0  0  0  0  0  0  0
   12.4355  -19.0009  -13.3210 C   0  0  0  0  0  0  0  0  0  0  0  0
   12.7492  -17.7130  -14.0660 C   0  0  0  0  0  0  0  0  0  0  0  0
   14.0922  -17.3505  -13.7815 O   0  0  0  0  0  0  0  0  0  0  0  0
   14.6202  -16.2273  -14.3199 C   0  0  0  0  0  0  0  0  0  0  0  0
   13.9351  -15.3535  -15.1794 C   0  0  0  0  0  0  0  0  0  0  0  0
   14.5806  -14.2176  -15.6750 C   0  0  0  0  0  0  0  0  0  0  0  0
   15.9121  -13.9147  -15.3448 C   0  0  0  0  0  0  0  0  0  0  0  0
   16.5863  -12.7075  -15.8811 C   0  0  0  0  0  0  0  0  0  0  0  0
   15.8713  -11.5139  -16.1151 C   0  0  0  0  0  0  0  0  0  0  0  0
   16.5027  -10.3822  -16.6195 C   0  0  0  0  0  0  0  0  0  0  0  0
   17.8778  -10.4005  -16.9079 C   0  0  0  0  0  0  0  0  0  0  0  0
   18.4911   -9.1554  -17.4417 C   0  0  0  0  0  0  0  0  0  0  0  0
   17.8909   -8.1272  -17.6386 O   0  0  0  0  0  0  0  0  0  0  0  0
   19.8256   -9.3243  -17.6820 O   0  0  0  0  0  0  0  0  0  0  0  0
   20.6946   -8.3748  -18.1752 C   0  0  0  0  0  0  0  0  0  0  0  0
   20.3922   -7.0290  -18.4220 C   0  0  0  0  0  0  0  0  0  0  0  0
   21.4002   -6.1958  -18.9108 C   0  0  0  0  0  0  0  0  0  0  0  0
   22.7049   -6.6579  -19.1647 C   0  0  0  0  0  0  0  0  0  0  0  0
   23.7039   -5.7202  -19.6760 C   0  0  0  0  0  0  0  0  0  0  0  0
   24.9912   -5.9837  -19.9871 C   0  0  0  0  0  0  0  0  0  0  0  0
   25.9393   -4.9862  -20.5104 C   0  0  0  0  0  0  0  0  0  0  0  0
   27.0719   -5.2377  -20.8480 O   0  0  0  0  0  0  0  0  0  0  0  0
   25.4069   -3.7268  -20.5608 O   0  0  0  0  0  0  0  0  0  0  0  0
   26.1932   -2.6820  -21.1277 C   0  0  2  0  0  0  0  0  0  0  0  0
   27.1963   -3.0744  -21.3540 H   0  0  0  0  0  0  0  0  0  0  0  0
   26.2653   -1.4991  -20.1670 C   0  0  0  0  0  0  0  0  0  0  0  0
   26.9856   -1.8249  -18.8565 C   0  0  0  0  0  0  0  0  0  0  0  0
   27.0670   -0.6297  -17.9026 C   0  0  0  0  0  0  0  0  0  0  0  0
   27.7772   -0.9436  -16.5828 C   0  0  0  0  0  0  0  0  0  0  0  0
   27.8591    0.2479  -15.6236 C   0  0  0  0  0  0  0  0  0  0  0  0
   28.5694   -0.0737  -14.3080 C   0  0  0  0  0  0  0  0  0  0  0  0
   25.5507   -2.3137  -22.4655 C   0  0  1  0  0  0  0  0  0  0  0  0
   25.4524   -3.3834  -23.2668 F   0  0  0  0  0  0  0  0  0  0  0  0
   24.3171   -1.8058  -22.3131 F   0  0  0  0  0  0  0  0  0  0  0  0
   26.2949   -1.3904  -23.1008 F   0  0  0  0  0  0  0  0  0  0  0  0
   22.9775   -8.0191  -18.9062 C   0  0  0  0  0  0  0  0  0  0  0  0
   21.9901   -8.8629  -18.4197 C   0  0  0  0  0  0  0  0  0  0  0  0
   18.6033  -11.5815  -16.6790 C   0  0  0  0  0  0  0  0  0  0  0  0
   17.9654  -12.7120  -16.1756 C   0  0  0  0  0  0  0  0  0  0  0  0
   16.5824  -14.8086  -14.4818 C   0  0  0  0  0  0  0  0  0  0  0  0
   15.9539  -15.9387  -13.9762 C   0  0  0  0  0  0  0  0  0  0  0  0
    4.3854  -26.5278  -11.4589 H   0  0  0  0  0  0  0  0  0  0  0  0
    5.5274  -26.0627  -10.1773 H   0  0  0  0  0  0  0  0  0  0  0  0
    6.0937  -27.0102  -11.5696 H   0  0  0  0  0  0  0  0  0  0  0  0
    5.0206  -24.1128  -11.7200 H   0  0  0  0  0  0  0  0  0  0  0  0
    5.5816  -25.0522  -13.1005 H   0  0  0  0  0  0  0  0  0  0  0  0
    7.8840  -25.1779  -12.0800 H   0  0  0  0  0  0  0  0  0  0  0  0
    7.3228  -24.2383  -10.6986 H   0  0  0  0  0  0  0  0  0  0  0  0
    6.7754  -22.3105  -12.2320 H   0  0  0  0  0  0  0  0  0  0  0  0
    7.3355  -23.2501  -13.6137 H   0  0  0  0  0  0  0  0  0  0  0  0
    9.6401  -23.3759  -12.5946 H   0  0  0  0  0  0  0  0  0  0  0  0
    9.0805  -22.4368  -11.2125 H   0  0  0  0  0  0  0  0  0  0  0  0
    8.5324  -20.5083  -12.7436 H   0  0  0  0  0  0  0  0  0  0  0  0
    9.0897  -21.4476  -14.1269 H   0  0  0  0  0  0  0  0  0  0  0  0
   11.3960  -21.5760  -13.1112 H   0  0  0  0  0  0  0  0  0  0  0  0
   10.8393  -20.6378  -11.7273 H   0  0  0  0  0  0  0  0  0  0  0  0
   10.2887  -18.7095  -13.2538 H   0  0  0  0  0  0  0  0  0  0  0  0
   10.8424  -19.6484  -14.6401 H   0  0  0  0  0  0  0  0  0  0  0  0
   13.1611  -19.7714  -13.6340 H   0  0  0  0  0  0  0  0  0  0  0  0
   12.6076  -18.8329  -12.2439 H   0  0  0  0  0  0  0  0  0  0  0  0
   12.0633  -16.9035  -13.7509 H   0  0  0  0  0  0  0  0  0  0  0  0
   12.6169  -17.8519  -15.1562 H   0  0  0  0  0  0  0  0  0  0  0  0
   12.9053  -15.5507  -15.4766 H   0  0  0  0  0  0  0  0  0  0  0  0
   14.0332  -13.5671  -16.3609 H   0  0  0  0  0  0  0  0  0  0  0  0
   14.8079  -11.4664  -15.8716 H   0  0  0  0  0  0  0  0  0  0  0  0
   15.9448   -9.4595  -16.7898 H   0  0  0  0  0  0  0  0  0  0  0  0
   19.3919   -6.6487  -18.2390 H   0  0  0  0  0  0  0  0  0  0  0  0
   21.1630   -5.1460  -19.1035 H   0  0  0  0  0  0  0  0  0  0  0  0
   23.3560   -4.6931  -19.8216 H   0  0  0  0  0  0  0  0  0  0  0  0
   25.4289   -6.9794  -19.8896 H   0  0  0  0  0  0  0  0  0  0  0  0
   25.2391   -1.1505  -19.9628 H   0  0  0  0  0  0  0  0  0  0  0  0
   26.7822   -0.6755  -20.6872 H   0  0  0  0  0  0  0  0  0  0  0  0
   28.0042   -2.1913  -19.0784 H   0  0  0  0  0  0  0  0  0  0  0  0
   26.4643   -2.6584  -18.3551 H   0  0  0  0  0  0  0  0  0  0  0  0
   26.0454   -0.2633  -17.6901 H   0  0  0  0  0  0  0  0  0  0  0  0
   27.5854    0.2069  -18.4070 H   0  0  0  0  0  0  0  0  0  0  0  0
   28.7985   -1.3106  -16.7964 H   0  0  0  0  0  0  0  0  0  0  0  0
   27.2585   -1.7815  -16.0803 H   0  0  0  0  0  0  0  0  0  0  0  0
   26.8377    0.6136  -15.4118 H   0  0  0  0  0  0  0  0  0  0  0  0
   28.3769    1.0843  -16.1278 H   0  0  0  0  0  0  0  0  0  0  0  0
   28.0540   -0.8810  -13.7609 H   0  0  0  0  0  0  0  0  0  0  0  0
   28.6099    0.8044  -13.6439 H   0  0  0  0  0  0  0  0  0  0  0  0
   29.6065   -0.4063  -14.4830 H   0  0  0  0  0  0  0  0  0  0  0  0
   23.9753   -8.4233  -19.0877 H   0  0  0  0  0  0  0  0  0  0  0  0
   22.1988   -9.9153  -18.2186 H   0  0  0  0  0  0  0  0  0  0  0  0
   19.6691  -11.6124  -16.9065 H   0  0  0  0  0  0  0  0  0  0  0  0
   18.5434  -13.6271  -16.0316 H   0  0  0  0  0  0  0  0  0  0  0  0
   17.6104  -14.5984  -14.1781 H   0  0  0  0  0  0  0  0  0  0  0  0
   16.4725  -16.6196  -13.2983 H   0  0  0  0  0  0  0  0  0  0  0  0
  1  2  1  0
  1 50  1  0
  1 51  1  0
  1 52  1  0
  2  3  1  0
  2 53  1  0
  2 54  1  0
  3  4  1  0
  3 55  1  0
  3 56  1  0
  4  5  1  0
  4 57  1  0
  4 58  1  0
  5  6  1  0
  5 59  1  0
  5 60  1  0
  6  7  1  0
  6 61  1  0
  6 62  1  0
  7  8  1  0
  7 63  1  0
  7 64  1  0
  8  9  1  0
  8 65  1  0
  8 66  1  0
  9 10  1  0
  9 67  1  0
  9 68  1  0
 10 11  1  0
 10 69  1  0
 10 70  1  0
 11 12  1  0
 12 13  2  0
 12 49  1  0
 13 14  1  0
 13 71  1  0
 14 15  2  0
 14 72  1  0
 15 16  1  0
 15 48  1  0
 16 17  2  0
 16 47  1  0
 17 18  1  0
 17 73  1  0
 18 19  2  0
 18 74  1  0
 19 20  1  0
 19 46  1  0
 20 21  2  0
 20 22  1  0
 22 23  1  0
 23 24  2  0
 23 45  1  0
 24 25  1  0
 24 75  1  0
 25 26  2  0
 25 76  1  0
 26 27  1  0
 26 44  1  0
 27 28  2  0
 27 77  1  0
 28 29  1  0
 28 78  1  0
 29 30  2  0
 29 31  1  0
 31 32  1  0
 32 33  1  6
 32 34  1  0
 32 40  1  0
 34 35  1  0
 34 79  1  0
 34 80  1  0
 35 36  1  0
 35 81  1  0
 35 82  1  0
 36 37  1  0
 36 83  1  0
 36 84  1  0
 37 38  1  0
 37 85  1  0
 37 86  1  0
 38 39  1  0
 38 87  1  0
 38 88  1  0
 39 89  1  0
 39 90  1  0
 39 91  1  0
 40 41  1  6
 40 42  1  0
 40 43  1  0
 44 45  2  0
 44 92  1  0
 45 93  1  0
 46 47  2  0
 46 94  1  0
 47 95  1  0
 48 49  2  0
 48 96  1  0
 49 97  1  0
M  END

