
     RDKit          3D

 32 33  0  0  0  0  0  0  0  0999 V2000
    1.1950    0.0503    1.2020 C   0  0  0  0  0  0  0  0  0  0  0  0
    2.5978   -0.0025    0.6468 C   0  0  0  0  0  0  0  0  0  0  0  0
    3.6129   -0.7309    1.2852 C   0  0  0  0  0  0  0  0  0  0  0  0
    4.9130   -0.7674    0.7746 C   0  0  0  0  0  0  0  0  0  0  0  0
    5.2415   -0.0751   -0.3996 C   0  0  0  0  0  0  0  0  0  0  0  0
    6.6567   -0.0739   -0.9458 C   0  0  0  0  0  0  0  0  0  0  0  0
    7.2987   -1.3751   -0.8816 N   0  0  0  0  0  0  0  0  0  0  0  0
    8.5040   -1.5788   -0.2795 C   0  0  0  0  0  0  0  0  0  0  0  0
    9.1748   -0.7025    0.2305 O   0  0  0  0  0  0  0  0  0  0  0  0
    8.9657   -3.0260   -0.2899 C   0  0  0  0  0  0  0  0  0  0  0  0
    9.5068   -3.5867   -1.4514 C   0  0  0  0  0  0  0  0  0  0  0  0
    9.5267   -2.8410   -2.5670 F   0  0  0  0  0  0  0  0  0  0  0  0
   10.0244   -4.8781   -1.4971 C   0  0  0  0  0  0  0  0  0  0  0  0
    9.9975   -5.6480   -0.3327 C   0  0  0  0  0  0  0  0  0  0  0  0
    9.4592   -5.1327    0.8488 C   0  0  0  0  0  0  0  0  0  0  0  0
    8.9528   -3.8298    0.8609 C   0  0  0  0  0  0  0  0  0  0  0  0
    8.2660   -3.2082    2.3437 Cl  0  0  0  0  0  0  0  0  0  0  0  0
    4.2281    0.6473   -1.0463 C   0  0  0  0  0  0  0  0  0  0  0  0
    2.9316    0.6857   -0.5308 C   0  0  0  0  0  0  0  0  0  0  0  0
    1.0714   -0.6320    2.0559 H   0  0  0  0  0  0  0  0  0  0  0  0
    0.4486   -0.2245    0.4385 H   0  0  0  0  0  0  0  0  0  0  0  0
    0.9403    1.0668    1.5479 H   0  0  0  0  0  0  0  0  0  0  0  0
    3.3831   -1.2807    2.2026 H   0  0  0  0  0  0  0  0  0  0  0  0
    5.6811   -1.3468    1.2936 H   0  0  0  0  0  0  0  0  0  0  0  0
    7.3019    0.6045   -0.3650 H   0  0  0  0  0  0  0  0  0  0  0  0
    6.6518    0.3022   -1.9841 H   0  0  0  0  0  0  0  0  0  0  0  0
    6.8123   -2.1735   -1.2733 H   0  0  0  0  0  0  0  0  0  0  0  0
   10.4384   -5.2546   -2.4339 H   0  0  0  0  0  0  0  0  0  0  0  0
   10.3987   -6.6640   -0.3450 H   0  0  0  0  0  0  0  0  0  0  0  0
    9.4274   -5.7296    1.7610 H   0  0  0  0  0  0  0  0  0  0  0  0
    4.4568    1.1879   -1.9699 H   0  0  0  0  0  0  0  0  0  0  0  0
    2.1613    1.2565   -1.0582 H   0  0  0  0  0  0  0  0  0  0  0  0
  1  2  1  0
  1 20  1  0
  1 21  1  0
  1 22  1  0
  2  3  2  0
  2 19  1  0
  3  4  1  0
  3 23  1  0
  4  5  2  0
  4 24  1  0
  5  6  1  0
  5 18  1  0
  6  7  1  0
  6 25  1  0
  6 26  1  0
  7  8  1  0
  7 27  1  0
  8  9  2  0
  8 10  1  0
 10 11  2  0
 10 16  1  0
 11 12  1  0
 11 13  1  0
 13 14  2  0
 13 28  1  0
 14 15  1  0
 14 29  1  0
 15 16  2  0
 15 30  1  0
 16 17  1  0
 18 19  2  0
 18 31  1  0
 19 32  1  0
M  END

