
     RDKit          3D

 52 53  0  0  0  0  0  0  0  0999 V2000
    4.4412    1.2267   -0.5721 C   0  0  0  0  0  0  0  0  0  0  0  0
    3.3527    0.2734   -0.0919 C   0  0  2  0  0  0  0  0  0  0  0  0
    2.4012    0.7982    0.0066 H   0  0  0  0  0  0  0  0  0  0  0  0
    3.7558   -0.1818    1.2118 O   0  0  0  0  0  0  0  0  0  0  0  0
    2.9074   -0.9870    1.8618 C   0  0  0  0  0  0  0  0  0  0  0  0
    1.7960   -1.2560    1.4639 O   0  0  0  0  0  0  0  0  0  0  0  0
    3.5228   -1.5273    3.1335 C   0  0  0  0  0  0  0  0  0  0  0  0
    2.4840   -2.1200    4.0793 C   0  0  0  0  0  0  0  0  0  0  0  0
    3.1543   -2.7513    5.2160 N   0  0  0  0  0  0  0  0  0  0  0  0
    2.2293   -3.6554    6.2965 S   0  0  1  0  0  0  0  0  0  0  0  0
    3.0345   -3.7107    7.5153 O   0  0  0  0  0  0  0  0  0  0  0  0
    0.8403   -3.1893    6.3101 O   0  0  0  0  0  0  0  0  0  0  0  0
    2.1978   -5.2566    5.5371 C   0  0  0  0  0  0  0  0  0  0  0  0
    1.0655   -5.8919    5.0824 C   0  0  0  0  0  0  0  0  0  0  0  0
    1.3509   -7.1925    4.5758 C   0  0  0  0  0  0  0  0  0  0  0  0
    2.6857   -7.5089    4.6632 C   0  0  0  0  0  0  0  0  0  0  0  0
    3.6204   -6.2375    5.3644 S   0  0  0  0  0  0  0  0  0  0  0  0
    3.2720   -0.9384   -1.0489 C   0  0  0  0  0  0  0  0  0  0  0  0
    4.0852   -1.8322   -0.8801 O   0  0  0  0  0  0  0  0  0  0  0  0
    2.4403   -0.8675   -2.1541 N   0  0  0  0  0  0  0  0  0  0  0  0
    2.7098   -1.8363   -3.2591 C   0  0  1  0  0  0  0  0  0  0  0  0
    2.1627   -1.4047   -4.1162 H   0  0  0  0  0  0  0  0  0  0  0  0
    4.1723   -1.9257   -3.6957 C   0  0  0  0  0  0  0  0  0  0  0  0
    2.0596   -3.1913   -2.9380 C   0  0  0  0  0  0  0  0  0  0  0  0
    0.5505   -3.0230   -2.7143 C   0  0  0  0  0  0  0  0  0  0  0  0
    0.2310   -1.8793   -1.7418 C   0  0  0  0  0  0  0  0  0  0  0  0
    0.9732   -0.5774   -2.1095 C   0  0  1  0  0  0  0  0  0  0  0  0
    0.7252   -0.3285   -3.1558 H   0  0  0  0  0  0  0  0  0  0  0  0
    0.4856    0.6022   -1.2701 C   0  0  0  0  0  0  0  0  0  0  0  0
    5.3999    0.6930   -0.6449 H   0  0  0  0  0  0  0  0  0  0  0  0
    4.5521    2.0650    0.1318 H   0  0  0  0  0  0  0  0  0  0  0  0
    4.1809    1.6266   -1.5631 H   0  0  0  0  0  0  0  0  0  0  0  0
    4.1078   -0.7243    3.6111 H   0  0  0  0  0  0  0  0  0  0  0  0
    4.2530   -2.2994    2.8350 H   0  0  0  0  0  0  0  0  0  0  0  0
    1.9054   -2.8873    3.5440 H   0  0  0  0  0  0  0  0  0  0  0  0
    1.7597   -1.3487    4.3955 H   0  0  0  0  0  0  0  0  0  0  0  0
    3.7514   -2.1377    5.7724 H   0  0  0  0  0  0  0  0  0  0  0  0
    0.0801   -5.4281    5.1254 H   0  0  0  0  0  0  0  0  0  0  0  0
    0.5982   -7.8663    4.1644 H   0  0  0  0  0  0  0  0  0  0  0  0
    3.1775   -8.4305    4.3528 H   0  0  0  0  0  0  0  0  0  0  0  0
    4.6044   -0.9197   -3.8179 H   0  0  0  0  0  0  0  0  0  0  0  0
    4.2173   -2.4288   -4.6750 H   0  0  0  0  0  0  0  0  0  0  0  0
    4.7888   -2.4829   -2.9814 H   0  0  0  0  0  0  0  0  0  0  0  0
    2.5480   -3.6056   -2.0415 H   0  0  0  0  0  0  0  0  0  0  0  0
    2.2454   -3.8969   -3.7655 H   0  0  0  0  0  0  0  0  0  0  0  0
    0.1065   -3.9645   -2.3504 H   0  0  0  0  0  0  0  0  0  0  0  0
    0.0667   -2.8100   -3.6858 H   0  0  0  0  0  0  0  0  0  0  0  0
    0.5155   -2.1496   -0.7106 H   0  0  0  0  0  0  0  0  0  0  0  0
   -0.8554   -1.6865   -1.7332 H   0  0  0  0  0  0  0  0  0  0  0  0
    0.5125    0.3868   -0.1934 H   0  0  0  0  0  0  0  0  0  0  0  0
   -0.5650    0.7936   -1.5388 H   0  0  0  0  0  0  0  0  0  0  0  0
    1.0491    1.5237   -1.4815 H   0  0  0  0  0  0  0  0  0  0  0  0
  1  2  1  0
  1 30  1  0
  1 31  1  0
  1 32  1  0
  2  3  1  1
  2  4  1  0
  2 18  1  0
  4  5  1  0
  5  6  2  0
  5  7  1  0
  7  8  1  0
  7 33  1  0
  7 34  1  0
  8  9  1  0
  8 35  1  0
  8 36  1  0
 10  9  1  6
  9 37  1  0
 10 11  2  0
 10 12  2  0
 10 13  1  0
 13 14  2  0
 13 17  1  0
 14 15  1  0
 14 38  1  0
 15 16  2  0
 15 39  1  0
 16 17  1  0
 16 40  1  0
 18 19  2  0
 18 20  1  0
 20 21  1  0
 20 27  1  0
 21 22  1  6
 21 23  1  0
 21 24  1  0
 23 41  1  0
 23 42  1  0
 23 43  1  0
 24 25  1  0
 24 44  1  0
 24 45  1  0
 25 26  1  0
 25 46  1  0
 25 47  1  0
 26 27  1  0
 26 48  1  0
 26 49  1  0
 27 28  1  6
 27 29  1  0
 29 50  1  0
 29 51  1  0
 29 52  1  0
M  END

