
     RDKit          3D

 41 42  0  0  0  0  0  0  0  0999 V2000
    0.9592    0.0902    0.0356 C   0  0  0  0  0  0  0  0  0  0  0  0
    2.4593   -0.0294    0.0364 C   0  0  0  0  0  0  0  0  0  0  0  0
    3.1595    1.1083    0.0595 N   0  0  0  0  0  0  0  0  0  0  0  0
    4.4902    1.0089    0.0581 C   0  0  0  0  0  0  0  0  0  0  0  0
    5.3438    2.5578    0.1178 S   0  0  0  0  0  0  0  0  0  0  0  0
    7.0962    1.9786    0.1994 C   0  0  0  0  0  0  0  0  0  0  0  0
    8.0049    3.1615    0.3755 C   0  0  0  0  0  0  0  0  0  0  0  0
    8.3435    3.6056    1.6637 C   0  0  0  0  0  0  0  0  0  0  0  0
    7.8475    2.9365    2.7132 F   0  0  0  0  0  0  0  0  0  0  0  0
    9.1743    4.6955    1.9036 C   0  0  0  0  0  0  0  0  0  0  0  0
    9.6946    5.3930    0.8119 C   0  0  0  0  0  0  0  0  0  0  0  0
    9.3864    4.9977   -0.4908 C   0  0  0  0  0  0  0  0  0  0  0  0
    8.5476    3.8975   -0.6949 C   0  0  0  0  0  0  0  0  0  0  0  0
    8.1823    3.4314   -2.3422 Cl  0  0  0  0  0  0  0  0  0  0  0  0
    5.1872   -0.1236    0.0109 N   0  0  0  0  0  0  0  0  0  0  0  0
    4.4875   -1.2467    0.0090 C   0  0  0  0  0  0  0  0  0  0  0  0
    5.1851   -2.4219   -0.0908 O   0  0  0  0  0  0  0  0  0  0  0  0
    6.2858   -2.6217    0.7364 C   0  0  0  0  0  0  0  0  0  0  0  0
    6.3843   -2.1065    1.8217 O   0  0  0  0  0  0  0  0  0  0  0  0
    7.1617   -3.5044    0.1787 N   0  0  0  0  0  0  0  0  0  0  0  0
    7.0436   -4.0685   -1.1537 C   0  0  0  0  0  0  0  0  0  0  0  0
    8.3136   -3.9206    0.9590 C   0  0  0  0  0  0  0  0  0  0  0  0
    3.0871   -1.2969    0.0251 C   0  0  0  0  0  0  0  0  0  0  0  0
    2.3119   -2.5857    0.0242 C   0  0  0  0  0  0  0  0  0  0  0  0
    0.6761    1.1499    0.0181 H   0  0  0  0  0  0  0  0  0  0  0  0
    0.5236   -0.3813    0.9326 H   0  0  0  0  0  0  0  0  0  0  0  0
    0.5173   -0.4179   -0.8374 H   0  0  0  0  0  0  0  0  0  0  0  0
    7.3235    1.4380   -0.7269 H   0  0  0  0  0  0  0  0  0  0  0  0
    7.1783    1.2829    1.0432 H   0  0  0  0  0  0  0  0  0  0  0  0
    9.3962    4.9779    2.9340 H   0  0  0  0  0  0  0  0  0  0  0  0
   10.3478    6.2530    0.9766 H   0  0  0  0  0  0  0  0  0  0  0  0
    9.7867    5.5334   -1.3522 H   0  0  0  0  0  0  0  0  0  0  0  0
    6.1771   -3.6488   -1.6727 H   0  0  0  0  0  0  0  0  0  0  0  0
    6.9315   -5.1669   -1.1058 H   0  0  0  0  0  0  0  0  0  0  0  0
    7.9510   -3.8480   -1.7436 H   0  0  0  0  0  0  0  0  0  0  0  0
    8.2751   -3.4369    1.9414 H   0  0  0  0  0  0  0  0  0  0  0  0
    9.2522   -3.6336    0.4525 H   0  0  0  0  0  0  0  0  0  0  0  0
    8.3178   -5.0170    1.0923 H   0  0  0  0  0  0  0  0  0  0  0  0
    2.9842   -3.4504    0.0850 H   0  0  0  0  0  0  0  0  0  0  0  0
    1.7045   -2.6919   -0.8911 H   0  0  0  0  0  0  0  0  0  0  0  0
    1.6139   -2.6342    0.8763 H   0  0  0  0  0  0  0  0  0  0  0  0
  1  2  1  0
  1 25  1  0
  1 26  1  0
  1 27  1  0
  2  3  2  0
  2 23  1  0
  3  4  1  0
  4  5  1  0
  4 15  2  0
  5  6  1  0
  6  7  1  0
  6 28  1  0
  6 29  1  0
  7  8  2  0
  7 13  1  0
  8  9  1  0
  8 10  1  0
 10 11  2  0
 10 30  1  0
 11 12  1  0
 11 31  1  0
 12 13  2  0
 12 32  1  0
 13 14  1  0
 15 16  1  0
 16 17  1  0
 16 23  2  0
 17 18  1  0
 18 19  2  0
 18 20  1  0
 20 21  1  0
 20 22  1  0
 21 33  1  0
 21 34  1  0
 21 35  1  0
 22 36  1  0
 22 37  1  0
 22 38  1  0
 23 24  1  0
 24 39  1  0
 24 40  1  0
 24 41  1  0
M  END

