
     RDKit          3D

 32 32  0  0  0  0  0  0  0  0999 V2000
    0.8934   -1.0460   -0.8381 C   0  0  0  0  0  0  0  0  0  0  0  0
    2.4088   -0.7980   -0.8050 C   0  0  1  0  0  0  0  0  0  0  0  0
    3.1712   -1.9379   -1.4894 C   0  0  0  0  0  0  0  0  0  0  0  0
    2.6909    0.4431   -1.4619 O   0  0  0  0  0  0  0  0  0  0  0  0
    2.8631   -0.6261    0.6594 C   0  0  0  0  0  0  0  0  0  0  0  0
    4.2918   -0.4858    0.8536 N   0  0  0  0  0  0  0  0  0  0  0  0
    4.8679    0.8314    0.5900 C   0  0  0  0  0  0  0  0  0  0  0  0
    6.3095    0.7090    1.1086 C   0  0  0  0  0  0  0  0  0  0  0  0
    6.2491   -0.4048    2.1968 C   0  0  1  0  0  0  0  0  0  0  0  0
    6.8717   -1.2562    1.8708 H   0  0  0  0  0  0  0  0  0  0  0  0
    6.7393    0.0266    3.5887 C   0  0  0  0  0  0  0  0  0  0  0  0
    8.1519    0.3635    3.7092 N   0  0  0  0  0  0  0  0  0  0  0  0
    4.7714   -0.8445    2.1820 C   0  0  0  0  0  0  0  0  0  0  0  0
    0.5396   -1.1182   -1.8803 H   0  0  0  0  0  0  0  0  0  0  0  0
    0.3581   -0.2132   -0.3562 H   0  0  0  0  0  0  0  0  0  0  0  0
    0.6186   -1.9831   -0.3279 H   0  0  0  0  0  0  0  0  0  0  0  0
    2.8826   -2.0126   -2.5521 H   0  0  0  0  0  0  0  0  0  0  0  0
    2.9513   -2.9085   -1.0163 H   0  0  0  0  0  0  0  0  0  0  0  0
    4.2529   -1.7601   -1.4200 H   0  0  0  0  0  0  0  0  0  0  0  0
    2.4688    0.3416   -2.3970 H   0  0  0  0  0  0  0  0  0  0  0  0
    2.5337   -1.5233    1.2080 H   0  0  0  0  0  0  0  0  0  0  0  0
    2.3026    0.2361    1.0892 H   0  0  0  0  0  0  0  0  0  0  0  0
    4.3192    1.6214    1.1554 H   0  0  0  0  0  0  0  0  0  0  0  0
    4.7920    1.0894   -0.4733 H   0  0  0  0  0  0  0  0  0  0  0  0
    6.6734    1.6687    1.5113 H   0  0  0  0  0  0  0  0  0  0  0  0
    6.9915    0.4232    0.2937 H   0  0  0  0  0  0  0  0  0  0  0  0
    6.1477    0.8991    3.9220 H   0  0  0  0  0  0  0  0  0  0  0  0
    6.5163   -0.7787    4.3122 H   0  0  0  0  0  0  0  0  0  0  0  0
    8.3882    1.1368    3.0864 H   0  0  0  0  0  0  0  0  0  0  0  0
    8.7300   -0.4240    3.4116 H   0  0  0  0  0  0  0  0  0  0  0  0
    4.2107   -0.3014    2.9817 H   0  0  0  0  0  0  0  0  0  0  0  0
    4.6417   -1.9230    2.3723 H   0  0  0  0  0  0  0  0  0  0  0  0
  1  2  1  0
  1 14  1  0
  1 15  1  0
  1 16  1  0
  2  3  1  0
  2  4  1  6
  2  5  1  0
  3 17  1  0
  3 18  1  0
  3 19  1  0
  4 20  1  0
  5  6  1  0
  5 21  1  0
  5 22  1  0
  6  7  1  0
  6 13  1  0
  7  8  1  0
  7 23  1  0
  7 24  1  0
  8  9  1  0
  8 25  1  0
  8 26  1  0
  9 10  1  6
  9 11  1  0
  9 13  1  0
 11 12  1  0
 11 27  1  0
 11 28  1  0
 12 29  1  0
 12 30  1  0
 13 31  1  0
 13 32  1  0
M  END

