
     RDKit          3D

 87 97  0  0  0  0  0  0  0  0999 V2000
   -0.9201   -0.4054   -2.1944 C   0  0  0  0  0  0  0  0  0  0  0  0
   -0.7939   -0.6165   -0.8179 C   0  0  0  0  0  0  0  0  0  0  0  0
    0.4416   -0.4465   -0.1887 C   0  0  0  0  0  0  0  0  0  0  0  0
    1.5674   -0.0799   -0.9416 C   0  0  0  0  0  0  0  0  0  0  0  0
    2.8286    0.0864   -0.3062 N   0  0  0  0  0  0  0  0  0  0  0  0
    3.5145   -0.8909    0.4216 C   0  0  0  0  0  0  0  0  0  0  0  0
    3.1652   -2.2243    0.6720 C   0  0  0  0  0  0  0  0  0  0  0  0
    4.0508   -2.9987    1.4220 C   0  0  0  0  0  0  0  0  0  0  0  0
    5.2597   -2.4677    1.9116 C   0  0  0  0  0  0  0  0  0  0  0  0
    5.6090   -1.1440    1.6507 C   0  0  0  0  0  0  0  0  0  0  0  0
    4.7367   -0.3436    0.8984 C   0  0  0  0  0  0  0  0  0  0  0  0
    4.7867    1.0289    0.4343 C   0  0  0  0  0  0  0  0  0  0  0  0
    5.7106    2.0676    0.6030 C   0  0  0  0  0  0  0  0  0  0  0  0
    5.4490    3.3132    0.0233 C   0  0  0  0  0  0  0  0  0  0  0  0
    6.3695    4.3861    0.1781 N   0  0  0  0  0  0  0  0  0  0  0  0
    6.0373    5.6606    0.6221 C   0  0  0  0  0  0  0  0  0  0  0  0
    7.1508    6.4598    0.6577 C   0  0  0  0  0  0  0  0  0  0  0  0
    8.2555    5.6581    0.2049 C   0  0  0  0  0  0  0  0  0  0  0  0
    9.6251    5.9095    0.0129 C   0  0  0  0  0  0  0  0  0  0  0  0
   10.4654    4.8995   -0.4699 C   0  0  0  0  0  0  0  0  0  0  0  0
   11.9176    5.1486   -0.6734 C   0  0  0  0  0  0  0  0  0  0  0  0
   12.8775    4.1514   -0.4170 C   0  0  0  0  0  0  0  0  0  0  0  0
   14.2388    4.3851   -0.6094 C   0  0  0  0  0  0  0  0  0  0  0  0
   14.7109    5.6269   -1.0680 C   0  0  0  0  0  0  0  0  0  0  0  0
   16.2259    5.8987   -1.1843 C   0  0  2  0  0  0  0  0  0  0  0  0
   17.0044    4.6909   -1.7518 C   0  0  0  0  0  0  0  0  0  0  0  0
   16.4709    3.9363   -2.8118 C   0  0  0  0  0  0  0  0  0  0  0  0
   17.1975    2.8945   -3.3932 C   0  0  0  0  0  0  0  0  0  0  0  0
   18.4781    2.5820   -2.9278 C   0  0  0  0  0  0  0  0  0  0  0  0
   19.0216    3.3254   -1.8779 C   0  0  0  0  0  0  0  0  0  0  0  0
   18.2929    4.3686   -1.2976 C   0  0  0  0  0  0  0  0  0  0  0  0
   16.7406    6.3636    0.1918 C   0  0  0  0  0  0  0  0  0  0  0  0
   16.7083    5.6890    1.4106 C   0  0  0  0  0  0  0  0  0  0  0  0
   17.2234    6.3158    2.5529 C   0  0  0  0  0  0  0  0  0  0  0  0
   17.7589    7.6085    2.4773 C   0  0  0  0  0  0  0  0  0  0  0  0
   17.7873    8.2930    1.2586 C   0  0  0  0  0  0  0  0  0  0  0  0
   17.2759    7.6657    0.1169 C   0  0  0  0  0  0  0  0  0  0  0  0
   17.1741    8.1373   -1.2703 C   0  0  0  0  0  0  0  0  0  0  0  0
   17.5762    9.3430   -1.8559 C   0  0  0  0  0  0  0  0  0  0  0  0
   17.3595    9.5371   -3.2233 C   0  0  0  0  0  0  0  0  0  0  0  0
   16.7518    8.5374   -3.9945 C   0  0  0  0  0  0  0  0  0  0  0  0
   16.3522    7.3287   -3.4090 C   0  0  0  0  0  0  0  0  0  0  0  0
   16.5593    7.1327   -2.0451 C   0  0  0  0  0  0  0  0  0  0  0  0
   13.7575    6.6248   -1.3202 C   0  0  0  0  0  0  0  0  0  0  0  0
   12.3944    6.3900   -1.1306 C   0  0  0  0  0  0  0  0  0  0  0  0
    9.9065    3.6267   -0.7690 C   0  0  0  0  0  0  0  0  0  0  0  0
    8.5570    3.3459   -0.5887 C   0  0  0  0  0  0  0  0  0  0  0  0
    7.7339    4.3649   -0.0875 C   0  0  0  0  0  0  0  0  0  0  0  0
    4.2569    3.5222   -0.7046 C   0  0  0  0  0  0  0  0  0  0  0  0
    3.3155    2.5075   -0.8643 C   0  0  0  0  0  0  0  0  0  0  0  0
    3.5924    1.2548   -0.3032 C   0  0  0  0  0  0  0  0  0  0  0  0
    1.4426    0.1227   -2.3244 C   0  0  0  0  0  0  0  0  0  0  0  0
    0.1999   -0.0315   -2.9435 C   0  0  0  0  0  0  0  0  0  0  0  0
   -1.8894   -0.5323   -2.6825 H   0  0  0  0  0  0  0  0  0  0  0  0
   -1.6659   -0.9038   -0.2251 H   0  0  0  0  0  0  0  0  0  0  0  0
    0.5402   -0.5884    0.8894 H   0  0  0  0  0  0  0  0  0  0  0  0
    2.2344   -2.6474    0.2913 H   0  0  0  0  0  0  0  0  0  0  0  0
    3.7992   -4.0417    1.6307 H   0  0  0  0  0  0  0  0  0  0  0  0
    5.9293   -3.1020    2.4970 H   0  0  0  0  0  0  0  0  0  0  0  0
    6.5515   -0.7354    2.0239 H   0  0  0  0  0  0  0  0  0  0  0  0
    6.6168    1.9207    1.1932 H   0  0  0  0  0  0  0  0  0  0  0  0
    5.0099    5.8801    0.9060 H   0  0  0  0  0  0  0  0  0  0  0  0
    7.1820    7.4990    0.9786 H   0  0  0  0  0  0  0  0  0  0  0  0
   10.0350    6.8907    0.2635 H   0  0  0  0  0  0  0  0  0  0  0  0
   12.5558    3.1783   -0.0386 H   0  0  0  0  0  0  0  0  0  0  0  0
   14.9460    3.5799   -0.3997 H   0  0  0  0  0  0  0  0  0  0  0  0
   15.4677    4.1575   -3.1816 H   0  0  0  0  0  0  0  0  0  0  0  0
   16.7568    2.3220   -4.2138 H   0  0  0  0  0  0  0  0  0  0  0  0
   19.0462    1.7646   -3.3792 H   0  0  0  0  0  0  0  0  0  0  0  0
   20.0221    3.0945   -1.5025 H   0  0  0  0  0  0  0  0  0  0  0  0
   18.7377    4.9392   -0.4808 H   0  0  0  0  0  0  0  0  0  0  0  0
   16.2871    4.6838    1.4824 H   0  0  0  0  0  0  0  0  0  0  0  0
   17.2035    5.7922    3.5121 H   0  0  0  0  0  0  0  0  0  0  0  0
   18.1539    8.0857    3.3779 H   0  0  0  0  0  0  0  0  0  0  0  0
   18.2016    9.3028    1.2022 H   0  0  0  0  0  0  0  0  0  0  0  0
   18.0537   10.1225   -1.2565 H   0  0  0  0  0  0  0  0  0  0  0  0
   17.6684   10.4736   -3.6949 H   0  0  0  0  0  0  0  0  0  0  0  0
   16.5902    8.6996   -5.0632 H   0  0  0  0  0  0  0  0  0  0  0  0
   15.8847    6.5541   -4.0207 H   0  0  0  0  0  0  0  0  0  0  0  0
   14.0786    7.6036   -1.6802 H   0  0  0  0  0  0  0  0  0  0  0  0
   11.6835    7.1847   -1.3686 H   0  0  0  0  0  0  0  0  0  0  0  0
   10.5532    2.8495   -1.1818 H   0  0  0  0  0  0  0  0  0  0  0  0
    8.1551    2.3646   -0.8464 H   0  0  0  0  0  0  0  0  0  0  0  0
    4.0800    4.4997   -1.1578 H   0  0  0  0  0  0  0  0  0  0  0  0
    2.3958    2.6893   -1.4221 H   0  0  0  0  0  0  0  0  0  0  0  0
    2.3246    0.3917   -2.9092 H   0  0  0  0  0  0  0  0  0  0  0  0
    0.1103    0.1295   -4.0207 H   0  0  0  0  0  0  0  0  0  0  0  0
  1  2  2  0
  1 53  1  0
  1 54  1  0
  2  3  1  0
  2 55  1  0
  3  4  2  0
  3 56  1  0
  4  5  1  0
  4 52  1  0
  5  6  1  0
  5 51  1  0
  6  7  2  0
  6 11  1  0
  7  8  1  0
  7 57  1  0
  8  9  2  0
  8 58  1  0
  9 10  1  0
  9 59  1  0
 10 11  2  0
 10 60  1  0
 11 12  1  0
 12 13  1  0
 12 51  2  0
 13 14  2  0
 13 61  1  0
 14 15  1  0
 14 49  1  0
 15 16  1  0
 15 48  1  0
 16 17  2  0
 16 62  1  0
 17 18  1  0
 17 63  1  0
 18 19  1  0
 18 48  2  0
 19 20  2  0
 19 64  1  0
 20 21  1  0
 20 46  1  0
 21 22  2  0
 21 45  1  0
 22 23  1  0
 22 65  1  0
 23 24  2  0
 23 66  1  0
 25 24  1  1
 24 44  1  0
 25 26  1  0
 25 32  1  0
 25 43  1  0
 26 27  2  0
 26 31  1  0
 27 28  1  0
 27 67  1  0
 28 29  2  0
 28 68  1  0
 29 30  1  0
 29 69  1  0
 30 31  2  0
 30 70  1  0
 31 71  1  0
 32 33  2  0
 32 37  1  0
 33 34  1  0
 33 72  1  0
 34 35  2  0
 34 73  1  0
 35 36  1  0
 35 74  1  0
 36 37  2  0
 36 75  1  0
 37 38  1  0
 38 39  2  0
 38 43  1  0
 39 40  1  0
 39 76  1  0
 40 41  2  0
 40 77  1  0
 41 42  1  0
 41 78  1  0
 42 43  2  0
 42 79  1  0
 44 45  2  0
 44 80  1  0
 45 81  1  0
 46 47  2  0
 46 82  1  0
 47 48  1  0
 47 83  1  0
 49 50  2  0
 49 84  1  0
 50 51  1  0
 50 85  1  0
 52 53  2  0
 52 86  1  0
 53 87  1  0
M  END

