
     RDKit          3D

 49 52  0  0  0  0  0  0  0  0999 V2000
    1.3028   -0.3552    0.5781 C   0  0  0  0  0  0  0  0  0  0  0  0
    2.7709   -0.2137    0.2742 C   0  0  0  0  0  0  0  0  0  0  0  0
    3.2415    1.0215    0.0480 N   0  0  0  0  0  0  0  0  0  0  0  0
    4.5477    1.0760   -0.2189 C   0  0  0  0  0  0  0  0  0  0  0  0
    5.4045   -0.0119   -0.2703 C   0  0  0  0  0  0  0  0  0  0  0  0
    4.8085   -1.2725   -0.0160 C   0  0  0  0  0  0  0  0  0  0  0  0
    5.4784   -2.4477   -0.0298 N   0  0  0  0  0  0  0  0  0  0  0  0
    4.9946   -3.7889    0.2826 C   0  0  0  0  0  0  0  0  0  0  0  0
    6.4581   -4.2975    0.1485 C   0  0  0  0  0  0  0  0  0  0  0  0
    6.8873   -2.8290   -0.1247 C   0  0  0  0  0  0  0  0  0  0  0  0
    3.4909   -1.3400    0.2527 N   0  0  0  0  0  0  0  0  0  0  0  0
    6.8048    0.4192   -0.6143 C   0  0  0  0  0  0  0  0  0  0  0  0
    6.6576    1.8767   -0.7448 N   0  0  0  0  0  0  0  0  0  0  0  0
    7.7511    2.6348   -1.0537 C   0  0  0  0  0  0  0  0  0  0  0  0
    8.8486    2.1208   -1.2232 O   0  0  0  0  0  0  0  0  0  0  0  0
    7.5214    4.1394   -1.1728 C   0  0  0  0  0  0  0  0  0  0  0  0
    8.8058    4.9037   -1.5207 C   0  0  0  0  0  0  0  0  0  0  0  0
    8.5883    6.3960   -1.6442 C   0  0  0  0  0  0  0  0  0  0  0  0
    8.7215    7.2415   -0.5328 C   0  0  0  0  0  0  0  0  0  0  0  0
    8.4867    8.6145   -0.6444 C   0  0  0  0  0  0  0  0  0  0  0  0
    8.1169    9.1371   -1.8780 C   0  0  0  0  0  0  0  0  0  0  0  0
    7.8937   10.4616   -1.9871 F   0  0  0  0  0  0  0  0  0  0  0  0
    7.9724    8.3415   -3.0212 C   0  0  0  0  0  0  0  0  0  0  0  0
    7.5803    8.9650   -4.3349 C   0  0  0  0  0  0  0  0  0  0  0  0
    8.2156    6.9695   -2.8713 C   0  0  0  0  0  0  0  0  0  0  0  0
    5.2937    2.3524   -0.5147 C   0  0  0  0  0  0  0  0  0  0  0  0
    0.8199    0.6298    0.5937 H   0  0  0  0  0  0  0  0  0  0  0  0
    1.1609   -0.8540    1.5499 H   0  0  0  0  0  0  0  0  0  0  0  0
    0.8174   -0.9913   -0.1796 H   0  0  0  0  0  0  0  0  0  0  0  0
    4.2716   -4.1853   -0.4499 H   0  0  0  0  0  0  0  0  0  0  0  0
    4.5460   -3.8733    1.2871 H   0  0  0  0  0  0  0  0  0  0  0  0
    6.6283   -4.9824   -0.6931 H   0  0  0  0  0  0  0  0  0  0  0  0
    6.8818   -4.7380    1.0609 H   0  0  0  0  0  0  0  0  0  0  0  0
    7.3467   -2.6421   -1.1103 H   0  0  0  0  0  0  0  0  0  0  0  0
    7.5297   -2.3791    0.6522 H   0  0  0  0  0  0  0  0  0  0  0  0
    7.1859   -0.0163   -1.5558 H   0  0  0  0  0  0  0  0  0  0  0  0
    7.5548    0.1766    0.1595 H   0  0  0  0  0  0  0  0  0  0  0  0
    7.0941    4.5169   -0.2268 H   0  0  0  0  0  0  0  0  0  0  0  0
    6.7440    4.3273   -1.9347 H   0  0  0  0  0  0  0  0  0  0  0  0
    9.2141    4.4968   -2.4584 H   0  0  0  0  0  0  0  0  0  0  0  0
    9.5621    4.6901   -0.7500 H   0  0  0  0  0  0  0  0  0  0  0  0
    9.0201    6.8251    0.4334 H   0  0  0  0  0  0  0  0  0  0  0  0
    8.5910    9.2876    0.2091 H   0  0  0  0  0  0  0  0  0  0  0  0
    6.6089    9.4808   -4.2596 H   0  0  0  0  0  0  0  0  0  0  0  0
    7.5063    8.2059   -5.1267 H   0  0  0  0  0  0  0  0  0  0  0  0
    8.3144    9.7235   -4.6530 H   0  0  0  0  0  0  0  0  0  0  0  0
    8.1168    6.3257   -3.7512 H   0  0  0  0  0  0  0  0  0  0  0  0
    4.8636    2.8653   -1.3948 H   0  0  0  0  0  0  0  0  0  0  0  0
    5.2227    3.0578    0.3340 H   0  0  0  0  0  0  0  0  0  0  0  0
  1  2  1  0
  1 27  1  0
  1 28  1  0
  1 29  1  0
  2  3  2  0
  2 11  1  0
  3  4  1  0
  4  5  2  0
  4 26  1  0
  5  6  1  0
  5 12  1  0
  6  7  1  0
  6 11  2  0
  7  8  1  0
  7 10  1  0
  8  9  1  0
  8 30  1  0
  8 31  1  0
  9 10  1  0
  9 32  1  0
  9 33  1  0
 10 34  1  0
 10 35  1  0
 12 13  1  0
 12 36  1  0
 12 37  1  0
 13 14  1  0
 13 26  1  0
 14 15  2  0
 14 16  1  0
 16 17  1  0
 16 38  1  0
 16 39  1  0
 17 18  1  0
 17 40  1  0
 17 41  1  0
 18 19  2  0
 18 25  1  0
 19 20  1  0
 19 42  1  0
 20 21  2  0
 20 43  1  0
 21 22  1  0
 21 23  1  0
 23 24  1  0
 23 25  2  0
 24 44  1  0
 24 45  1  0
 24 46  1  0
 25 47  1  0
 26 48  1  0
 26 49  1  0
M  END

