
     RDKit          3D

 58 62  0  0  0  0  0  0  0  0999 V2000
   -2.0402   -6.0706   -4.1656 C   0  0  0  0  0  0  0  0  0  0  0  0
   -0.9312   -6.7195   -4.7205 C   0  0  0  0  0  0  0  0  0  0  0  0
    0.3608   -6.3705   -4.3218 C   0  0  0  0  0  0  0  0  0  0  0  0
    0.5674   -5.3670   -3.3618 C   0  0  0  0  0  0  0  0  0  0  0  0
    1.9709   -5.0258   -2.8872 C   0  0  0  0  0  0  0  0  0  0  0  0
    2.9529   -5.0081   -3.9649 N   0  0  0  0  0  0  0  0  0  0  0  0
    2.8170   -3.9002   -4.9127 C   0  0  0  0  0  0  0  0  0  0  0  0
    3.4530   -2.5938   -4.4029 C   0  0  0  0  0  0  0  0  0  0  0  0
    4.8530   -2.7671   -3.9939 N   0  0  0  0  0  0  0  0  0  0  0  0
    5.8344   -2.7204   -5.0693 C   0  0  0  0  0  0  0  0  0  0  0  0
    6.1032   -1.2826   -5.5378 C   0  0  0  0  0  0  0  0  0  0  0  0
    6.3655   -0.4582   -4.3675 N   0  0  0  0  0  0  0  0  0  0  0  0
    6.5406    0.8909   -4.3416 C   0  0  0  0  0  0  0  0  0  0  0  0
    7.1949    1.7331   -5.2564 C   0  0  0  0  0  0  0  0  0  0  0  0
    7.2091    3.1357   -4.9771 C   0  0  0  0  0  0  0  0  0  0  0  0
    6.6856    3.6973   -3.8927 N   0  0  0  0  0  0  0  0  0  0  0  0
    6.1132    2.8859   -3.0036 C   0  0  0  0  0  0  0  0  0  0  0  0
    5.5189    3.1514   -1.8366 N   0  0  0  0  0  0  0  0  0  0  0  0
    5.1129    1.9401   -1.4133 C   0  0  0  0  0  0  0  0  0  0  0  0
    5.3877    0.9034   -2.2059 N   0  0  0  0  0  0  0  0  0  0  0  0
    6.0372    1.5114   -3.2257 N   0  0  0  0  0  0  0  0  0  0  0  0
    7.8864    4.1033   -5.9297 C   0  0  0  0  0  0  0  0  0  0  0  0
    8.2219    3.5151   -7.2993 C   0  0  0  0  0  0  0  0  0  0  0  0
    8.8805    2.1476   -7.1265 C   0  0  0  0  0  0  0  0  0  0  0  0
    7.9095    1.1601   -6.4702 C   0  0  0  0  0  0  0  0  0  0  0  0
    4.9846   -3.8751   -3.0436 C   0  0  0  0  0  0  0  0  0  0  0  0
    4.3463   -5.1775   -3.5583 C   0  0  0  0  0  0  0  0  0  0  0  0
   -0.5498   -4.7178   -2.8181 C   0  0  0  0  0  0  0  0  0  0  0  0
   -1.8457   -5.0676   -3.2126 C   0  0  0  0  0  0  0  0  0  0  0  0
   -3.0513   -6.3435   -4.4787 H   0  0  0  0  0  0  0  0  0  0  0  0
   -1.0755   -7.5034   -5.4691 H   0  0  0  0  0  0  0  0  0  0  0  0
    1.2317   -6.8649   -4.7583 H   0  0  0  0  0  0  0  0  0  0  0  0
    2.2941   -5.8024   -2.1710 H   0  0  0  0  0  0  0  0  0  0  0  0
    1.9224   -4.0828   -2.3005 H   0  0  0  0  0  0  0  0  0  0  0  0
    1.7505   -3.7452   -5.1393 H   0  0  0  0  0  0  0  0  0  0  0  0
    3.2994   -4.1991   -5.8617 H   0  0  0  0  0  0  0  0  0  0  0  0
    2.8895   -2.2157   -3.5320 H   0  0  0  0  0  0  0  0  0  0  0  0
    3.3873   -1.8099   -5.1741 H   0  0  0  0  0  0  0  0  0  0  0  0
    5.5704   -3.3260   -5.9614 H   0  0  0  0  0  0  0  0  0  0  0  0
    6.7775   -3.1328   -4.6766 H   0  0  0  0  0  0  0  0  0  0  0  0
    5.2386   -0.8946   -6.1111 H   0  0  0  0  0  0  0  0  0  0  0  0
    6.9564   -1.3024   -6.2291 H   0  0  0  0  0  0  0  0  0  0  0  0
    5.8330   -0.7990   -3.5586 H   0  0  0  0  0  0  0  0  0  0  0  0
    4.5828    1.7882   -0.4718 H   0  0  0  0  0  0  0  0  0  0  0  0
    8.8123    4.4499   -5.4349 H   0  0  0  0  0  0  0  0  0  0  0  0
    7.2455    4.9954   -6.0059 H   0  0  0  0  0  0  0  0  0  0  0  0
    8.8790    4.2039   -7.8542 H   0  0  0  0  0  0  0  0  0  0  0  0
    7.3021    3.4060   -7.9027 H   0  0  0  0  0  0  0  0  0  0  0  0
    9.7833    2.2563   -6.4988 H   0  0  0  0  0  0  0  0  0  0  0  0
    9.2176    1.7405   -8.0936 H   0  0  0  0  0  0  0  0  0  0  0  0
    8.4577    0.2514   -6.1714 H   0  0  0  0  0  0  0  0  0  0  0  0
    7.1730    0.8370   -7.2290 H   0  0  0  0  0  0  0  0  0  0  0  0
    4.4960   -3.5725   -2.0998 H   0  0  0  0  0  0  0  0  0  0  0  0
    6.0514   -4.0280   -2.8122 H   0  0  0  0  0  0  0  0  0  0  0  0
    4.4076   -5.9657   -2.7898 H   0  0  0  0  0  0  0  0  0  0  0  0
    4.9184   -5.5404   -4.4332 H   0  0  0  0  0  0  0  0  0  0  0  0
   -0.4047   -3.9270   -2.0756 H   0  0  0  0  0  0  0  0  0  0  0  0
   -2.7046   -4.5495   -2.7779 H   0  0  0  0  0  0  0  0  0  0  0  0
  1  2  2  0
  1 29  1  0
  1 30  1  0
  2  3  1  0
  2 31  1  0
  3  4  2  0
  3 32  1  0
  4  5  1  0
  4 28  1  0
  5  6  1  0
  5 33  1  0
  5 34  1  0
  6  7  1  0
  6 27  1  0
  7  8  1  0
  7 35  1  0
  7 36  1  0
  8  9  1  0
  8 37  1  0
  8 38  1  0
  9 10  1  0
  9 26  1  0
 10 11  1  0
 10 39  1  0
 10 40  1  0
 11 12  1  0
 11 41  1  0
 11 42  1  0
 12 13  1  0
 12 43  1  0
 13 14  2  0
 13 21  1  0
 14 15  1  0
 14 25  1  0
 15 16  2  0
 15 22  1  0
 16 17  1  0
 17 18  2  0
 17 21  1  0
 18 19  1  0
 19 20  2  0
 19 44  1  0
 20 21  1  0
 22 23  1  0
 22 45  1  0
 22 46  1  0
 23 24  1  0
 23 47  1  0
 23 48  1  0
 24 25  1  0
 24 49  1  0
 24 50  1  0
 25 51  1  0
 25 52  1  0
 26 27  1  0
 26 53  1  0
 26 54  1  0
 27 55  1  0
 27 56  1  0
 28 29  2  0
 28 57  1  0
 29 58  1  0
M  END

