
     RDKit          3D

 33 35  0  0  0  0  0  0  0  0999 V2000
    1.2146   -1.2653    0.4217 N   0  0  0  0  0  0  0  0  0  0  0  0
    2.2327   -0.3042    0.1174 C   0  0  1  0  0  0  0  0  0  0  0  0
    3.5453   -0.8162   -0.5322 C   0  0  2  0  0  0  0  0  0  0  0  0
    5.0063   -1.1489   -0.2655 C   0  0  0  0  0  0  0  0  0  0  0  0
    5.6223   -0.5247   -1.5855 C   0  0  0  0  0  0  0  0  0  0  0  0
    4.6556    0.3873   -2.1780 O   0  0  0  0  0  0  0  0  0  0  0  0
    3.6824    0.5315   -1.1753 C   0  0  1  0  0  0  0  0  0  0  0  0
    2.1511    0.6601   -1.1812 C   0  0  2  0  0  0  0  0  0  0  0  0
    1.6210    1.9981   -1.0831 N   0  0  0  0  0  0  0  0  0  0  0  0
    0.3053    2.2966   -0.8853 C   0  0  0  0  0  0  0  0  0  0  0  0
   -0.1532    3.6409   -0.9803 C   0  0  0  0  0  0  0  0  0  0  0  0
   -1.4914    3.9027   -0.7682 C   0  0  0  0  0  0  0  0  0  0  0  0
   -2.3662    2.8400   -0.4687 C   0  0  0  0  0  0  0  0  0  0  0  0
   -3.8298    3.0948   -0.2679 C   0  0  1  0  0  0  0  0  0  0  0  0
   -4.0435    4.1203    0.5820 F   0  0  0  0  0  0  0  0  0  0  0  0
   -4.4480    3.4268   -1.4212 F   0  0  0  0  0  0  0  0  0  0  0  0
   -4.4692    2.0207    0.2267 F   0  0  0  0  0  0  0  0  0  0  0  0
   -1.8219    1.5584   -0.3953 C   0  0  0  0  0  0  0  0  0  0  0  0
   -0.5305    1.2858   -0.5907 N   0  0  0  0  0  0  0  0  0  0  0  0
    0.3299   -0.7725    0.5539 H   0  0  0  0  0  0  0  0  0  0  0  0
    1.0688   -1.8872   -0.3747 H   0  0  0  0  0  0  0  0  0  0  0  0
    2.4191    0.3336    0.9976 H   0  0  0  0  0  0  0  0  0  0  0  0
    3.2046   -1.4932   -1.3394 H   0  0  0  0  0  0  0  0  0  0  0  0
    5.2446   -2.2191   -0.1783 H   0  0  0  0  0  0  0  0  0  0  0  0
    5.3933   -0.6340    0.6276 H   0  0  0  0  0  0  0  0  0  0  0  0
    5.8501   -1.3004   -2.3347 H   0  0  0  0  0  0  0  0  0  0  0  0
    6.5553    0.0232   -1.3687 H   0  0  0  0  0  0  0  0  0  0  0  0
    4.0362    1.2661   -0.4174 H   0  0  0  0  0  0  0  0  0  0  0  0
    1.6742    0.0899   -1.9977 H   0  0  0  0  0  0  0  0  0  0  0  0
    2.2310    2.7581   -1.3579 H   0  0  0  0  0  0  0  0  0  0  0  0
    0.5454    4.4464   -1.2182 H   0  0  0  0  0  0  0  0  0  0  0  0
   -1.8686    4.9264   -0.8311 H   0  0  0  0  0  0  0  0  0  0  0  0
   -2.4675    0.7068   -0.1579 H   0  0  0  0  0  0  0  0  0  0  0  0
  1  2  1  0
  1 20  1  0
  1 21  1  0
  2  3  1  0
  2  8  1  0
  2 22  1  1
  3  4  1  0
  3  7  1  0
  3 23  1  6
  4  5  1  0
  4 24  1  0
  4 25  1  0
  5  6  1  0
  5 26  1  0
  5 27  1  0
  6  7  1  0
  7  8  1  0
  7 28  1  1
  8  9  1  0
  8 29  1  6
  9 10  1  0
  9 30  1  0
 10 11  2  0
 10 19  1  0
 11 12  1  0
 11 31  1  0
 12 13  2  0
 12 32  1  0
 13 14  1  0
 13 18  1  0
 14 15  1  1
 14 16  1  0
 14 17  1  0
 18 19  2  0
 18 33  1  0
M  END

