
     RDKit          3D

 32 32  0  0  0  0  0  0  0  0999 V2000
    0.5718    0.3724    0.8246 C   0  0  0  0  0  0  0  0  0  0  0  0
    1.9635    0.7884    1.3174 C   0  0  1  0  0  0  0  0  0  0  0  0
    2.8318    1.4660    0.2405 C   0  0  0  0  0  0  0  0  0  0  0  0
    2.2830    2.6658   -0.4105 N   0  0  0  0  0  0  0  0  0  0  0  0
    1.4656    2.5283   -1.6098 C   0  0  0  0  0  0  0  0  0  0  0  0
    2.7323    3.8815    0.0159 C   0  0  0  0  0  0  0  0  0  0  0  0
    3.4484    4.0220    1.0144 O   0  0  0  0  0  0  0  0  0  0  0  0
    2.3569    4.9835   -0.7235 N   0  0  0  0  0  0  0  0  0  0  0  0
    2.6847    6.2964   -0.4153 C   0  0  0  0  0  0  0  0  0  0  0  0
    2.2750    7.2715   -1.1724 N   0  0  0  0  0  0  0  0  0  0  0  0
    2.7113    8.4715   -0.6787 C   0  0  0  0  0  0  0  0  0  0  0  0
    2.3439    9.7324   -1.4123 C   0  0  1  0  0  0  0  0  0  0  0  0
    2.8129    9.7276   -2.6700 F   0  0  0  0  0  0  0  0  0  0  0  0
    1.0136    9.8933   -1.4853 F   0  0  0  0  0  0  0  0  0  0  0  0
    2.8526   10.8110   -0.7912 F   0  0  0  0  0  0  0  0  0  0  0  0
    3.4604    8.4191    0.4629 C   0  0  0  0  0  0  0  0  0  0  0  0
    3.6492    6.7695    0.9725 S   0  0  0  0  0  0  0  0  0  0  0  0
    1.8427    1.4651    2.7084 C   0  0  0  0  0  0  0  0  0  0  0  0
    1.0830    1.0037    3.5238 O   0  0  0  0  0  0  0  0  0  0  0  0
    2.6392    2.4853    3.0179 O   0  0  0  0  0  0  0  0  0  0  0  0
    0.6385   -0.2842   -0.0580 H   0  0  0  0  0  0  0  0  0  0  0  0
   -0.0417    1.2494    0.5625 H   0  0  0  0  0  0  0  0  0  0  0  0
    0.0486   -0.1671    1.6241 H   0  0  0  0  0  0  0  0  0  0  0  0
    2.5142   -0.1406    1.5601 H   0  0  0  0  0  0  0  0  0  0  0  0
    3.0228    0.7275   -0.5547 H   0  0  0  0  0  0  0  0  0  0  0  0
    3.8111    1.7343    0.6599 H   0  0  0  0  0  0  0  0  0  0  0  0
    1.2070    1.4735   -1.7507 H   0  0  0  0  0  0  0  0  0  0  0  0
    1.9994    2.8663   -2.5173 H   0  0  0  0  0  0  0  0  0  0  0  0
    0.5175    3.0849   -1.5232 H   0  0  0  0  0  0  0  0  0  0  0  0
    1.7992    4.8982   -1.5660 H   0  0  0  0  0  0  0  0  0  0  0  0
    3.9018    9.2433    1.0187 H   0  0  0  0  0  0  0  0  0  0  0  0
    3.0643    2.9503    2.2560 H   0  0  0  0  0  0  0  0  0  0  0  0
  1  2  1  0
  1 21  1  0
  1 22  1  0
  1 23  1  0
  2  3  1  0
  2 18  1  0
  2 24  1  1
  3  4  1  0
  3 25  1  0
  3 26  1  0
  4  5  1  0
  4  6  1  0
  5 27  1  0
  5 28  1  0
  5 29  1  0
  6  7  2  0
  6  8  1  0
  8  9  1  0
  8 30  1  0
  9 10  2  0
  9 17  1  0
 10 11  1  0
 11 12  1  0
 11 16  2  0
 12 13  1  6
 12 14  1  0
 12 15  1  0
 16 17  1  0
 16 31  1  0
 18 19  2  0
 18 20  1  0
 20 32  1  0
M  END

