
     RDKit          3D

 62 66  0  0  0  0  0  0  0  0999 V2000
    5.2637    2.0365   -3.9775 C   0  0  0  0  0  0  0  0  0  0  0  0
    4.6215    1.7135   -2.8382 C   0  0  0  0  0  0  0  0  0  0  0  0
    4.3071    2.6888   -1.8659 N   0  0  0  0  0  0  0  0  0  0  0  0
    3.0305    3.0041   -1.4047 C   0  0  0  0  0  0  0  0  0  0  0  0
    1.8431    2.3766   -1.8223 C   0  0  0  0  0  0  0  0  0  0  0  0
    0.6095    2.7502   -1.2793 C   0  0  0  0  0  0  0  0  0  0  0  0
    0.5217    3.7657   -0.3244 C   0  0  0  0  0  0  0  0  0  0  0  0
    1.6896    4.4199    0.0876 C   0  0  0  0  0  0  0  0  0  0  0  0
    2.9069    4.0320   -0.4479 C   0  0  0  0  0  0  0  0  0  0  0  0
    4.0417    4.6645   -0.0699 F   0  0  0  0  0  0  0  0  0  0  0  0
    4.3227    0.3063   -2.4930 C   0  0  0  0  0  0  0  0  0  0  0  0
    4.0225   -0.1629   -1.2337 C   0  0  0  0  0  0  0  0  0  0  0  0
    3.7887   -1.8737   -1.2658 S   0  0  0  0  0  0  0  0  0  0  0  0
    4.1229   -1.8481   -2.9954 C   0  0  0  0  0  0  0  0  0  0  0  0
    4.1748   -3.1262   -3.7858 C   0  0  0  0  0  0  0  0  0  0  0  0
    3.1594   -4.0895   -3.3844 N   0  0  0  0  0  0  0  0  0  0  0  0
    1.8201   -3.7088   -3.8426 C   0  0  0  0  0  0  0  0  0  0  0  0
    0.6983   -4.4489   -3.1451 C   0  0  0  0  0  0  0  0  0  0  0  0
    0.5696   -4.4032   -1.7432 C   0  0  0  0  0  0  0  0  0  0  0  0
   -0.4719   -5.0542   -1.0942 C   0  0  0  0  0  0  0  0  0  0  0  0
   -1.4280   -5.7783   -1.8314 C   0  0  0  0  0  0  0  0  0  0  0  0
   -2.4081   -6.3806   -1.1103 O   0  0  0  0  0  0  0  0  0  0  0  0
   -3.4022   -7.1197   -1.7813 C   0  0  0  0  0  0  0  0  0  0  0  0
   -1.3161   -5.8345   -3.2272 C   0  0  0  0  0  0  0  0  0  0  0  0
   -0.2568   -5.1732   -3.8637 C   0  0  0  0  0  0  0  0  0  0  0  0
    3.5093   -5.4649   -3.7400 C   0  0  0  0  0  0  0  0  0  0  0  0
    4.7008   -6.0084   -2.9774 C   0  0  0  0  0  0  0  0  0  0  0  0
    5.7703   -6.6089   -3.6519 C   0  0  0  0  0  0  0  0  0  0  0  0
    6.8715   -7.1655   -2.9676 C   0  0  0  0  0  0  0  0  0  0  0  0
    6.8526   -7.0891   -1.5882 C   0  0  0  0  0  0  0  0  0  0  0  0
    5.7919   -6.4853   -0.9037 C   0  0  0  0  0  0  0  0  0  0  0  0
    4.7094   -5.9376   -1.5627 C   0  0  0  0  0  0  0  0  0  0  0  0
    6.0455   -6.5239    0.4405 O   0  0  0  0  0  0  0  0  0  0  0  0
    7.2144   -7.3204    0.6022 C   0  0  0  0  0  0  0  0  0  0  0  0
    7.7894   -7.5144   -0.6868 O   0  0  0  0  0  0  0  0  0  0  0  0
    4.3703   -0.6672   -3.4696 N   0  0  0  0  0  0  0  0  0  0  0  0
    5.4786    3.0784   -4.2261 H   0  0  0  0  0  0  0  0  0  0  0  0
    5.5955    1.2530   -4.6584 H   0  0  0  0  0  0  0  0  0  0  0  0
    4.9729    3.4484   -1.7817 H   0  0  0  0  0  0  0  0  0  0  0  0
    1.8904    1.5977   -2.5836 H   0  0  0  0  0  0  0  0  0  0  0  0
   -0.2955    2.2416   -1.6205 H   0  0  0  0  0  0  0  0  0  0  0  0
   -0.4441    4.0570    0.0934 H   0  0  0  0  0  0  0  0  0  0  0  0
    1.6735    5.2280    0.8219 H   0  0  0  0  0  0  0  0  0  0  0  0
    3.9239    0.4107   -0.3152 H   0  0  0  0  0  0  0  0  0  0  0  0
    5.1630   -3.5892   -3.6259 H   0  0  0  0  0  0  0  0  0  0  0  0
    4.1237   -2.8502   -4.8606 H   0  0  0  0  0  0  0  0  0  0  0  0
    1.7192   -3.8409   -4.9429 H   0  0  0  0  0  0  0  0  0  0  0  0
    1.7089   -2.6277   -3.6551 H   0  0  0  0  0  0  0  0  0  0  0  0
    1.3020   -3.8412   -1.1587 H   0  0  0  0  0  0  0  0  0  0  0  0
   -0.5762   -5.0184   -0.0077 H   0  0  0  0  0  0  0  0  0  0  0  0
   -4.0801   -7.5077   -1.0091 H   0  0  0  0  0  0  0  0  0  0  0  0
   -2.9753   -7.9715   -2.3419 H   0  0  0  0  0  0  0  0  0  0  0  0
   -3.9817   -6.4910   -2.4817 H   0  0  0  0  0  0  0  0  0  0  0  0
   -2.0375   -6.3878   -3.8287 H   0  0  0  0  0  0  0  0  0  0  0  0
   -0.1814   -5.2282   -4.9539 H   0  0  0  0  0  0  0  0  0  0  0  0
    3.6947   -5.5703   -4.8322 H   0  0  0  0  0  0  0  0  0  0  0  0
    2.6268   -6.0863   -3.5173 H   0  0  0  0  0  0  0  0  0  0  0  0
    5.7526   -6.6529   -4.7440 H   0  0  0  0  0  0  0  0  0  0  0  0
    7.7043   -7.6286   -3.4988 H   0  0  0  0  0  0  0  0  0  0  0  0
    3.8923   -5.4625   -1.0192 H   0  0  0  0  0  0  0  0  0  0  0  0
    6.9405   -8.3014    1.0399 H   0  0  0  0  0  0  0  0  0  0  0  0
    7.9333   -6.7991    1.2554 H   0  0  0  0  0  0  0  0  0  0  0  0
  1  2  2  0
  1 37  1  0
  1 38  1  0
  2  3  1  0
  2 11  1  0
  3  4  1  0
  3 39  1  0
  4  5  2  0
  4  9  1  0
  5  6  1  0
  5 40  1  0
  6  7  2  0
  6 41  1  0
  7  8  1  0
  7 42  1  0
  8  9  2  0
  8 43  1  0
  9 10  1  0
 11 12  2  0
 11 36  1  0
 12 13  1  0
 12 44  1  0
 13 14  1  0
 14 15  1  0
 14 36  2  0
 15 16  1  0
 15 45  1  0
 15 46  1  0
 16 17  1  0
 16 26  1  0
 17 18  1  0
 17 47  1  0
 17 48  1  0
 18 19  2  0
 18 25  1  0
 19 20  1  0
 19 49  1  0
 20 21  2  0
 20 50  1  0
 21 22  1  0
 21 24  1  0
 22 23  1  0
 23 51  1  0
 23 52  1  0
 23 53  1  0
 24 25  2  0
 24 54  1  0
 25 55  1  0
 26 27  1  0
 26 56  1  0
 26 57  1  0
 27 28  2  0
 27 32  1  0
 28 29  1  0
 28 58  1  0
 29 30  2  0
 29 59  1  0
 30 31  1  0
 30 35  1  0
 31 32  2  0
 31 33  1  0
 32 60  1  0
 33 34  1  0
 34 35  1  0
 34 61  1  0
 34 62  1  0
M  END

