
     RDKit          3D

 43 45  0  0  0  0  0  0  0  0999 V2000
    1.5149    1.3905   -0.1849 C   0  0  0  0  0  0  0  0  0  0  0  0
    2.0147    0.0277    0.2955 C   0  0  0  0  0  0  0  0  0  0  0  0
    2.6586   -0.7491   -0.7608 N   0  0  0  0  0  0  0  0  0  0  0  0
    3.6572   -1.7183   -0.3137 C   0  0  0  0  0  0  0  0  0  0  0  0
    3.0625   -3.0258    0.2342 C   0  0  0  0  0  0  0  0  0  0  0  0
    2.1063   -3.6806   -0.7860 C   0  0  2  0  0  0  0  0  0  0  0  0
    2.8084   -4.2752   -1.9269 N   0  0  0  0  0  0  0  0  0  0  0  0
    3.4161   -5.5081   -1.7951 C   0  0  0  0  0  0  0  0  0  0  0  0
    3.3518   -6.1640   -0.7666 O   0  0  0  0  0  0  0  0  0  0  0  0
    4.1124   -5.9691   -2.9114 N   0  0  0  0  0  0  0  0  0  0  0  0
    3.8571   -5.5619   -4.2833 C   0  0  0  0  0  0  0  0  0  0  0  0
    5.1762   -5.3115   -5.0153 C   0  0  0  0  0  0  0  0  0  0  0  0
    6.0526   -6.4508   -4.7981 N   0  0  0  0  0  0  0  0  0  0  0  0
    7.1816   -6.8166   -5.5058 C   0  0  0  0  0  0  0  0  0  0  0  0
    7.6740   -7.9255   -4.8544 C   0  0  0  0  0  0  0  0  0  0  0  0
    6.8886   -8.2401   -3.7738 N   0  0  0  0  0  0  0  0  0  0  0  0
    5.9313   -7.3391   -3.7591 C   0  0  0  0  0  0  0  0  0  0  0  0
    4.7874   -7.2585   -2.7890 C   0  0  0  0  0  0  0  0  0  0  0  0
    1.0816   -2.6434   -1.2773 C   0  0  0  0  0  0  0  0  0  0  0  0
    1.7577   -1.3388   -1.7464 C   0  0  0  0  0  0  0  0  0  0  0  0
    1.0975    1.9664    0.6568 H   0  0  0  0  0  0  0  0  0  0  0  0
    0.7193    1.2984   -0.9416 H   0  0  0  0  0  0  0  0  0  0  0  0
    2.3397    1.9669   -0.6321 H   0  0  0  0  0  0  0  0  0  0  0  0
    1.1765   -0.5132    0.7900 H   0  0  0  0  0  0  0  0  0  0  0  0
    2.7679    0.1896    1.0840 H   0  0  0  0  0  0  0  0  0  0  0  0
    4.3046   -1.2417    0.4396 H   0  0  0  0  0  0  0  0  0  0  0  0
    4.3149   -1.9520   -1.1736 H   0  0  0  0  0  0  0  0  0  0  0  0
    2.4968   -2.8163    1.1590 H   0  0  0  0  0  0  0  0  0  0  0  0
    3.8538   -3.7428    0.5035 H   0  0  0  0  0  0  0  0  0  0  0  0
    1.5894   -4.5163   -0.2941 H   0  0  0  0  0  0  0  0  0  0  0  0
    3.1790   -3.6359   -2.6184 H   0  0  0  0  0  0  0  0  0  0  0  0
    3.2318   -4.6619   -4.3154 H   0  0  0  0  0  0  0  0  0  0  0  0
    3.2923   -6.3556   -4.8138 H   0  0  0  0  0  0  0  0  0  0  0  0
    5.6534   -4.3906   -4.6353 H   0  0  0  0  0  0  0  0  0  0  0  0
    4.9994   -5.1835   -6.0954 H   0  0  0  0  0  0  0  0  0  0  0  0
    7.5186   -6.2670   -6.3815 H   0  0  0  0  0  0  0  0  0  0  0  0
    8.5553   -8.5121   -5.1125 H   0  0  0  0  0  0  0  0  0  0  0  0
    5.1498   -7.3778   -1.7605 H   0  0  0  0  0  0  0  0  0  0  0  0
    4.0825   -8.0967   -2.9684 H   0  0  0  0  0  0  0  0  0  0  0  0
    0.3943   -2.4176   -0.4451 H   0  0  0  0  0  0  0  0  0  0  0  0
    0.4694   -3.0724   -2.0881 H   0  0  0  0  0  0  0  0  0  0  0  0
    0.9938   -0.6004   -2.0340 H   0  0  0  0  0  0  0  0  0  0  0  0
    2.3386   -1.5326   -2.6704 H   0  0  0  0  0  0  0  0  0  0  0  0
  1  2  1  0
  1 21  1  0
  1 22  1  0
  1 23  1  0
  2  3  1  0
  2 24  1  0
  2 25  1  0
  3  4  1  0
  3 20  1  0
  4  5  1  0
  4 26  1  0
  4 27  1  0
  5  6  1  0
  5 28  1  0
  5 29  1  0
  6  7  1  0
  6 19  1  0
  6 30  1  1
  7  8  1  0
  7 31  1  0
  8  9  2  0
  8 10  1  0
 10 11  1  0
 10 18  1  0
 11 12  1  0
 11 32  1  0
 11 33  1  0
 12 13  1  0
 12 34  1  0
 12 35  1  0
 13 14  1  0
 13 17  1  0
 14 15  2  0
 14 36  1  0
 15 16  1  0
 15 37  1  0
 16 17  2  0
 17 18  1  0
 18 38  1  0
 18 39  1  0
 19 20  1  0
 19 40  1  0
 19 41  1  0
 20 42  1  0
 20 43  1  0
M  END

