
     RDKit          3D

 47 49  0  0  0  0  0  0  0  0999 V2000
    3.2028   -0.6871    2.4859 C   0  0  0  0  0  0  0  0  0  0  0  0
    3.9597   -0.6110    1.1952 C   0  0  0  0  0  0  0  0  0  0  0  0
    4.5631    0.4996    0.8151 N   0  0  0  0  0  0  0  0  0  0  0  0
    5.1742    0.2138   -0.3642 N   0  0  0  0  0  0  0  0  0  0  0  0
    5.9014    1.2414   -1.0059 C   0  0  0  0  0  0  0  0  0  0  0  0
    5.9763    2.5165   -0.4090 C   0  0  0  0  0  0  0  0  0  0  0  0
    6.7009    3.4989   -1.0732 C   0  0  0  0  0  0  0  0  0  0  0  0
    7.3226    3.1971   -2.2919 C   0  0  0  0  0  0  0  0  0  0  0  0
    7.1810    1.9022   -2.7876 C   0  0  0  0  0  0  0  0  0  0  0  0
    6.4880    0.9462   -2.1624 N   0  0  0  0  0  0  0  0  0  0  0  0
    4.9590   -1.1001   -0.7510 C   0  0  0  0  0  0  0  0  0  0  0  0
    5.4890   -1.7441   -1.9919 C   0  0  0  0  0  0  0  0  0  0  0  0
    4.1753   -1.6613    0.2459 C   0  0  0  0  0  0  0  0  0  0  0  0
    3.5987   -3.0447    0.3223 C   0  0  0  0  0  0  0  0  0  0  0  0
    2.1800   -3.1290   -0.2813 C   0  0  0  0  0  0  0  0  0  0  0  0
    1.5014   -4.3841    0.0021 N   0  0  0  0  0  0  0  0  0  0  0  0
    0.8130   -4.5665    1.1668 C   0  0  0  0  0  0  0  0  0  0  0  0
    0.7351   -3.7120    2.0336 O   0  0  0  0  0  0  0  0  0  0  0  0
    0.1912   -5.9378    1.3300 C   0  0  0  0  0  0  0  0  0  0  0  0
    1.0077   -7.0682    1.1801 C   0  0  0  0  0  0  0  0  0  0  0  0
    0.5105   -8.3551    1.4012 C   0  0  0  0  0  0  0  0  0  0  0  0
   -0.8249   -8.5267    1.7644 C   0  0  0  0  0  0  0  0  0  0  0  0
   -1.6545   -7.4110    1.9024 C   0  0  0  0  0  0  0  0  0  0  0  0
   -1.1598   -6.1190    1.6941 C   0  0  0  0  0  0  0  0  0  0  0  0
   -2.1131   -4.9476    1.8544 C   0  0  1  0  0  0  0  0  0  0  0  0
   -1.9561   -4.0420    0.8726 F   0  0  0  0  0  0  0  0  0  0  0  0
   -3.3968   -5.3613    1.7979 F   0  0  0  0  0  0  0  0  0  0  0  0
   -1.9615   -4.3194    3.0247 F   0  0  0  0  0  0  0  0  0  0  0  0
    2.9857    0.3244    2.8563 H   0  0  0  0  0  0  0  0  0  0  0  0
    3.7941   -1.2095    3.2582 H   0  0  0  0  0  0  0  0  0  0  0  0
    2.2595   -1.2447    2.3790 H   0  0  0  0  0  0  0  0  0  0  0  0
    5.4732    2.6936    0.5392 H   0  0  0  0  0  0  0  0  0  0  0  0
    6.7813    4.4999   -0.6412 H   0  0  0  0  0  0  0  0  0  0  0  0
    7.8996    3.9440   -2.8407 H   0  0  0  0  0  0  0  0  0  0  0  0
    7.6485    1.6166   -3.7373 H   0  0  0  0  0  0  0  0  0  0  0  0
    6.5866   -1.7033   -2.0390 H   0  0  0  0  0  0  0  0  0  0  0  0
    5.1271   -1.2443   -2.9021 H   0  0  0  0  0  0  0  0  0  0  0  0
    5.1721   -2.7971   -2.0159 H   0  0  0  0  0  0  0  0  0  0  0  0
    3.5328   -3.3543    1.3771 H   0  0  0  0  0  0  0  0  0  0  0  0
    4.2534   -3.7765   -0.1800 H   0  0  0  0  0  0  0  0  0  0  0  0
    2.2201   -2.9919   -1.3729 H   0  0  0  0  0  0  0  0  0  0  0  0
    1.5651   -2.3151    0.1299 H   0  0  0  0  0  0  0  0  0  0  0  0
    1.4667   -5.1073   -0.7054 H   0  0  0  0  0  0  0  0  0  0  0  0
    2.0577   -6.9318    0.9103 H   0  0  0  0  0  0  0  0  0  0  0  0
    1.1695   -9.2200    1.2922 H   0  0  0  0  0  0  0  0  0  0  0  0
   -1.2276   -9.5274    1.9371 H   0  0  0  0  0  0  0  0  0  0  0  0
   -2.7044   -7.5422    2.1663 H   0  0  0  0  0  0  0  0  0  0  0  0
  1  2  1  0
  1 29  1  0
  1 30  1  0
  1 31  1  0
  2  3  2  0
  2 13  1  0
  3  4  1  0
  4  5  1  0
  4 11  1  0
  5  6  2  0
  5 10  1  0
  6  7  1  0
  6 32  1  0
  7  8  2  0
  7 33  1  0
  8  9  1  0
  8 34  1  0
  9 10  2  0
  9 35  1  0
 11 12  1  0
 11 13  2  0
 12 36  1  0
 12 37  1  0
 12 38  1  0
 13 14  1  0
 14 15  1  0
 14 39  1  0
 14 40  1  0
 15 16  1  0
 15 41  1  0
 15 42  1  0
 16 17  1  0
 16 43  1  0
 17 18  2  0
 17 19  1  0
 19 20  2  0
 19 24  1  0
 20 21  1  0
 20 44  1  0
 21 22  2  0
 21 45  1  0
 22 23  1  0
 22 46  1  0
 23 24  2  0
 23 47  1  0
 24 25  1  0
 25 26  1  6
 25 27  1  0
 25 28  1  0
M  END

