
     RDKit          3D

 32 34  0  0  0  0  0  0  0  0999 V2000
    1.5414   -0.5837    1.9429 C   0  0  0  0  0  0  0  0  0  0  0  0
    2.7050   -1.5302    2.0679 C   0  0  0  0  0  0  0  0  0  0  0  0
    3.4330   -1.6980    3.2215 C   0  0  0  0  0  0  0  0  0  0  0  0
    4.7119   -2.8517    3.0489 S   0  0  0  0  0  0  0  0  0  0  0  0
    4.2788   -3.1362    1.4024 C   0  0  0  0  0  0  0  0  0  0  0  0
    3.2022   -2.3777    1.0058 C   0  0  0  0  0  0  0  0  0  0  0  0
    2.6775   -2.4008   -0.4093 C   0  0  0  0  0  0  0  0  0  0  0  0
    1.2399   -2.6232   -0.5321 N   0  0  0  0  0  0  0  0  0  0  0  0
    0.3792   -1.7290   -1.1906 C   0  0  0  0  0  0  0  0  0  0  0  0
    0.7847   -0.2768   -1.9064 S   0  0  0  0  0  0  0  0  0  0  0  0
   -0.8766   -2.2849   -1.1311 N   0  0  0  0  0  0  0  0  0  0  0  0
   -1.6706   -1.8130   -1.5428 H   0  0  0  0  0  0  0  0  0  0  0  0
   -0.8378   -3.5054   -0.4632 C   0  0  0  0  0  0  0  0  0  0  0  0
   -1.5426   -4.6462   -0.0048 C   0  0  0  0  0  0  0  0  0  0  0  0
   -2.9936   -4.9962   -0.1109 C   0  0  0  0  0  0  0  0  0  0  0  0
   -0.6739   -5.4669    0.5944 N   0  0  0  0  0  0  0  0  0  0  0  0
    0.5628   -4.9003    0.5312 N   0  0  0  0  0  0  0  0  0  0  0  0
    1.6855   -5.5744    1.1502 C   0  0  0  0  0  0  0  0  0  0  0  0
    0.4801   -3.7019   -0.1029 C   0  0  0  0  0  0  0  0  0  0  0  0
    1.5043    0.1057    2.7991 H   0  0  0  0  0  0  0  0  0  0  0  0
    0.5816   -1.1269    1.9120 H   0  0  0  0  0  0  0  0  0  0  0  0
    1.5949    0.0134    1.0188 H   0  0  0  0  0  0  0  0  0  0  0  0
    3.2856   -1.1878    4.1729 H   0  0  0  0  0  0  0  0  0  0  0  0
    4.8481   -3.8435    0.7996 H   0  0  0  0  0  0  0  0  0  0  0  0
    3.2164   -3.1643   -0.9943 H   0  0  0  0  0  0  0  0  0  0  0  0
    2.8445   -1.4319   -0.9093 H   0  0  0  0  0  0  0  0  0  0  0  0
   -3.6311   -4.2465    0.3870 H   0  0  0  0  0  0  0  0  0  0  0  0
   -3.1706   -5.9698    0.3663 H   0  0  0  0  0  0  0  0  0  0  0  0
   -3.3211   -5.0622   -1.1621 H   0  0  0  0  0  0  0  0  0  0  0  0
    1.3508   -6.5918    1.3852 H   0  0  0  0  0  0  0  0  0  0  0  0
    2.0059   -5.0696    2.0745 H   0  0  0  0  0  0  0  0  0  0  0  0
    2.5407   -5.6248    0.4603 H   0  0  0  0  0  0  0  0  0  0  0  0
  1  2  1  0
  1 20  1  0
  1 21  1  0
  1 22  1  0
  2  3  2  0
  2  6  1  0
  3  4  1  0
  3 23  1  0
  4  5  1  0
  5  6  2  0
  5 24  1  0
  6  7  1  0
  7  8  1  0
  7 25  1  0
  7 26  1  0
  8  9  1  0
  8 19  1  0
  9 10  2  0
  9 11  1  0
 11 12  1  0
 11 13  1  0
 13 14  1  0
 13 19  2  0
 14 15  1  0
 14 16  2  0
 15 27  1  0
 15 28  1  0
 15 29  1  0
 16 17  1  0
 17 18  1  0
 17 19  1  0
 18 30  1  0
 18 31  1  0
 18 32  1  0
M  END

