
     RDKit          3D

 58 62  0  0  0  0  0  0  0  0999 V2000
    1.4579    4.1458  -10.7182 C   0  0  0  0  0  0  0  0  0  0  0  0
    1.4238    3.6543   -9.2671 C   0  0  1  0  0  0  0  0  0  0  0  0
    0.8271    4.6999   -8.3188 C   0  0  0  0  0  0  0  0  0  0  0  0
    0.6637    2.3307   -9.1610 C   0  0  0  0  0  0  0  0  0  0  0  0
    2.7729    3.2908   -8.8287 O   0  0  0  0  0  0  0  0  0  0  0  0
    3.7740    4.1938   -8.7801 C   0  0  0  0  0  0  0  0  0  0  0  0
    3.6946    5.3720   -9.0687 O   0  0  0  0  0  0  0  0  0  0  0  0
    4.9228    3.5807   -8.3619 N   0  0  0  0  0  0  0  0  0  0  0  0
    6.1129    4.3304   -8.0695 C   0  0  0  0  0  0  0  0  0  0  0  0
    6.7437    3.8719   -6.7664 C   0  0  0  0  0  0  0  0  0  0  0  0
    6.3824    2.9005   -6.1431 O   0  0  0  0  0  0  0  0  0  0  0  0
    7.7722    4.6610   -6.4387 O   0  0  0  0  0  0  0  0  0  0  0  0
    8.5322    4.3757   -5.2349 C   0  0  0  0  0  0  0  0  0  0  0  0
    9.9957    4.2220   -5.5538 C   0  0  0  0  0  0  0  0  0  0  0  0
   10.8496    5.2847   -5.3211 C   0  0  0  0  0  0  0  0  0  0  0  0
   12.2210    5.2060   -5.6137 C   0  0  0  0  0  0  0  0  0  0  0  0
   12.7891    4.0575   -6.1574 C   0  0  0  0  0  0  0  0  0  0  0  0
   14.2304    3.9744   -6.4716 C   0  0  0  0  0  0  0  0  0  0  0  0
   15.1008    5.0404   -6.2470 C   0  0  0  0  0  0  0  0  0  0  0  0
   16.4740    4.9574   -6.5482 C   0  0  0  0  0  0  0  0  0  0  0  0
   16.9994    3.8002   -7.0819 C   0  0  0  0  0  0  0  0  0  0  0  0
   16.1615    2.6812   -7.3331 C   0  0  0  0  0  0  0  0  0  0  0  0
   16.6896    1.4830   -7.8833 C   0  0  0  0  0  0  0  0  0  0  0  0
   15.8641    0.4056   -8.1222 C   0  0  0  0  0  0  0  0  0  0  0  0
   14.4899    0.4830   -7.8226 C   0  0  0  0  0  0  0  0  0  0  0  0
   13.9154    1.6321   -7.2808 C   0  0  0  0  0  0  0  0  0  0  0  0
   12.4733    1.7170   -6.9649 C   0  0  0  0  0  0  0  0  0  0  0  0
   11.6106    0.6455   -7.1882 C   0  0  0  0  0  0  0  0  0  0  0  0
   10.2410    0.7254   -6.8855 C   0  0  0  0  0  0  0  0  0  0  0  0
    9.7047    1.8809   -6.3562 C   0  0  0  0  0  0  0  0  0  0  0  0
   10.5306    3.0113   -6.1064 C   0  0  0  0  0  0  0  0  0  0  0  0
   11.9371    2.9294   -6.4119 C   0  0  0  0  0  0  0  0  0  0  0  0
   14.7596    2.7628   -7.0264 C   0  0  0  0  0  0  0  0  0  0  0  0
    0.4309    4.3145  -11.0782 H   0  0  0  0  0  0  0  0  0  0  0  0
    1.9271    3.3897  -11.3673 H   0  0  0  0  0  0  0  0  0  0  0  0
    2.0210    5.0838  -10.8031 H   0  0  0  0  0  0  0  0  0  0  0  0
   -0.2245    4.8881   -8.5864 H   0  0  0  0  0  0  0  0  0  0  0  0
    1.3814    5.6452   -8.3762 H   0  0  0  0  0  0  0  0  0  0  0  0
    0.8545    4.3342   -7.2802 H   0  0  0  0  0  0  0  0  0  0  0  0
   -0.3846    2.4666   -9.4675 H   0  0  0  0  0  0  0  0  0  0  0  0
    0.6798    1.9570   -8.1259 H   0  0  0  0  0  0  0  0  0  0  0  0
    1.1217    1.5684   -9.8094 H   0  0  0  0  0  0  0  0  0  0  0  0
    4.8575    2.6363   -7.9971 H   0  0  0  0  0  0  0  0  0  0  0  0
    5.8674    5.4018   -8.0152 H   0  0  0  0  0  0  0  0  0  0  0  0
    6.8883    4.2334   -8.8544 H   0  0  0  0  0  0  0  0  0  0  0  0
    8.0999    3.4891   -4.7540 H   0  0  0  0  0  0  0  0  0  0  0  0
    8.3837    5.2412   -4.5737 H   0  0  0  0  0  0  0  0  0  0  0  0
   10.4518    6.2119   -4.8995 H   0  0  0  0  0  0  0  0  0  0  0  0
   12.8375    6.0795   -5.4040 H   0  0  0  0  0  0  0  0  0  0  0  0
   14.7267    5.9740   -5.8272 H   0  0  0  0  0  0  0  0  0  0  0  0
   17.1180    5.8188   -6.3551 H   0  0  0  0  0  0  0  0  0  0  0  0
   18.0639    3.7265   -7.3191 H   0  0  0  0  0  0  0  0  0  0  0  0
   17.7571    1.4323   -8.1126 H   0  0  0  0  0  0  0  0  0  0  0  0
   16.2685   -0.5170   -8.5458 H   0  0  0  0  0  0  0  0  0  0  0  0
   13.8742   -0.3925   -8.0282 H   0  0  0  0  0  0  0  0  0  0  0  0
   11.9902   -0.2868   -7.6053 H   0  0  0  0  0  0  0  0  0  0  0  0
    9.5983   -0.1386   -7.0715 H   0  0  0  0  0  0  0  0  0  0  0  0
    8.6390    1.9188   -6.1293 H   0  0  0  0  0  0  0  0  0  0  0  0
  1  2  1  0
  1 34  1  0
  1 35  1  0
  1 36  1  0
  2  3  1  0
  2  4  1  0
  2  5  1  1
  3 37  1  0
  3 38  1  0
  3 39  1  0
  4 40  1  0
  4 41  1  0
  4 42  1  0
  5  6  1  0
  6  7  2  0
  6  8  1  0
  8  9  1  0
  8 43  1  0
  9 10  1  0
  9 44  1  0
  9 45  1  0
 10 11  2  0
 10 12  1  0
 12 13  1  0
 13 14  1  0
 13 46  1  0
 13 47  1  0
 14 15  2  0
 14 31  1  0
 15 16  1  0
 15 48  1  0
 16 17  2  0
 16 49  1  0
 17 18  1  0
 17 32  1  0
 18 19  2  0
 18 33  1  0
 19 20  1  0
 19 50  1  0
 20 21  2  0
 20 51  1  0
 21 22  1  0
 21 52  1  0
 22 23  1  0
 22 33  2  0
 23 24  2  0
 23 53  1  0
 24 25  1  0
 24 54  1  0
 25 26  2  0
 25 55  1  0
 26 27  1  0
 26 33  1  0
 27 28  1  0
 27 32  2  0
 28 29  2  0
 28 56  1  0
 29 30  1  0
 29 57  1  0
 30 31  2  0
 30 58  1  0
 31 32  1  0
M  END

