
     RDKit          3D

 63 65  0  0  0  0  0  0  0  0999 V2000
    4.0408    2.6617   -9.0457 C   0  0  0  0  0  0  0  0  0  0  0  0
    4.5306    3.7553   -8.0947 C   0  0  0  0  0  0  0  0  0  0  0  0
    5.6020    3.2456   -7.1306 C   0  0  0  0  0  0  0  0  0  0  0  0
    6.1718    4.5701   -6.0260 S   0  0  1  0  0  0  0  0  0  0  0  0
    6.8986    5.5539   -6.8250 O   0  0  0  0  0  0  0  0  0  0  0  0
    5.0489    4.9473   -5.1673 O   0  0  0  0  0  0  0  0  0  0  0  0
    7.3637    3.8528   -5.0523 N   0  0  0  0  0  0  0  0  0  0  0  0
    7.1213    2.7795   -4.1732 C   0  0  0  0  0  0  0  0  0  0  0  0
    6.1177    2.8616   -3.1962 C   0  0  0  0  0  0  0  0  0  0  0  0
    5.8853    1.7882   -2.3418 C   0  0  0  0  0  0  0  0  0  0  0  0
    6.6923    0.6539   -2.4091 C   0  0  0  0  0  0  0  0  0  0  0  0
    6.4031   -0.6553   -1.2765 Cl  0  0  0  0  0  0  0  0  0  0  0  0
    7.7389    0.5368   -3.3485 C   0  0  0  0  0  0  0  0  0  0  0  0
    8.5315   -0.6141   -3.3905 N   0  0  0  0  0  0  0  0  0  0  0  0
    9.9137   -0.6217   -3.2882 C   0  0  0  0  0  0  0  0  0  0  0  0
   10.5869    0.3901   -3.2254 O   0  0  0  0  0  0  0  0  0  0  0  0
   10.5261   -1.9888   -3.3000 C   0  0  0  0  0  0  0  0  0  0  0  0
   11.8756   -2.1228   -3.5172 C   0  0  0  0  0  0  0  0  0  0  0  0
   12.3773   -3.7644   -3.5713 S   0  0  0  0  0  0  0  0  0  0  0  0
   10.7557   -4.3346   -3.2570 C   0  0  0  0  0  0  0  0  0  0  0  0
   10.4998   -5.8163   -3.2190 C   0  0  0  0  0  0  0  0  0  0  0  0
   11.3949   -6.5133   -4.1331 N   0  0  0  0  0  0  0  0  0  0  0  0
   11.4409   -7.9741   -4.0923 C   0  0  2  0  0  0  0  0  0  0  0  0
   10.0816   -8.6838   -4.2909 C   0  0  0  0  0  0  0  0  0  0  0  0
   10.2308  -10.2099   -4.3027 C   0  0  0  0  0  0  0  0  0  0  0  0
   10.9510  -10.6962   -3.0556 C   0  0  2  0  0  0  0  0  0  0  0  0
   11.1287  -12.0503   -3.1208 F   0  0  0  0  0  0  0  0  0  0  0  0
   10.1406  -10.4689   -1.9625 F   0  0  0  0  0  0  0  0  0  0  0  0
   12.2867  -10.0097   -2.8221 C   0  0  0  0  0  0  0  0  0  0  0  0
   12.1324   -8.4845   -2.8147 C   0  0  0  0  0  0  0  0  0  0  0  0
    9.8727   -3.2732   -3.1189 C   0  0  0  0  0  0  0  0  0  0  0  0
    8.4987   -3.3452   -2.8691 N   0  0  0  0  0  0  0  0  0  0  0  0
    8.0064   -4.1690   -2.0168 C   0  0  0  0  0  0  0  0  0  0  0  0
    6.6738   -4.2935   -1.8002 N   0  0  0  0  0  0  0  0  0  0  0  0
    7.8974    1.6034   -4.2603 C   0  0  0  0  0  0  0  0  0  0  0  0
    9.0142    1.4518   -5.5957 Cl  0  0  0  0  0  0  0  0  0  0  0  0
    3.2716    3.0550   -9.7282 H   0  0  0  0  0  0  0  0  0  0  0  0
    3.5977    1.8155   -8.4951 H   0  0  0  0  0  0  0  0  0  0  0  0
    4.8636    2.2650   -9.6631 H   0  0  0  0  0  0  0  0  0  0  0  0
    3.6897    4.1554   -7.5053 H   0  0  0  0  0  0  0  0  0  0  0  0
    4.9458    4.6009   -8.6666 H   0  0  0  0  0  0  0  0  0  0  0  0
    6.5022    2.8860   -7.6525 H   0  0  0  0  0  0  0  0  0  0  0  0
    5.2245    2.4439   -6.4768 H   0  0  0  0  0  0  0  0  0  0  0  0
    8.2473    3.8088   -5.5579 H   0  0  0  0  0  0  0  0  0  0  0  0
    5.5199    3.7700   -3.1326 H   0  0  0  0  0  0  0  0  0  0  0  0
    5.0965    1.8405   -1.5902 H   0  0  0  0  0  0  0  0  0  0  0  0
    8.0836   -1.5266   -3.2289 H   0  0  0  0  0  0  0  0  0  0  0  0
   12.5754   -1.3027   -3.6691 H   0  0  0  0  0  0  0  0  0  0  0  0
    9.4191   -5.9836   -3.4181 H   0  0  0  0  0  0  0  0  0  0  0  0
   10.6822   -6.2111   -2.2034 H   0  0  0  0  0  0  0  0  0  0  0  0
   11.2353   -6.1886   -5.0853 H   0  0  0  0  0  0  0  0  0  0  0  0
   12.0874   -8.2657   -4.9411 H   0  0  0  0  0  0  0  0  0  0  0  0
    9.6160   -8.3440   -5.2311 H   0  0  0  0  0  0  0  0  0  0  0  0
    9.3960   -8.4028   -3.4741 H   0  0  0  0  0  0  0  0  0  0  0  0
   10.8188  -10.5385   -5.1755 H   0  0  0  0  0  0  0  0  0  0  0  0
    9.2541  -10.7158   -4.3552 H   0  0  0  0  0  0  0  0  0  0  0  0
   12.9705  -10.3301   -3.6253 H   0  0  0  0  0  0  0  0  0  0  0  0
   12.7006  -10.3792   -1.8711 H   0  0  0  0  0  0  0  0  0  0  0  0
   13.1137   -7.9960   -2.7166 H   0  0  0  0  0  0  0  0  0  0  0  0
   11.5400   -8.1992   -1.9296 H   0  0  0  0  0  0  0  0  0  0  0  0
    8.6301   -4.8355   -1.3960 H   0  0  0  0  0  0  0  0  0  0  0  0
    6.0541   -3.6055   -2.2160 H   0  0  0  0  0  0  0  0  0  0  0  0
    6.3459   -4.7789   -0.9758 H   0  0  0  0  0  0  0  0  0  0  0  0
  1  2  1  0
  1 37  1  0
  1 38  1  0
  1 39  1  0
  2  3  1  0
  2 40  1  0
  2 41  1  0
  3  4  1  0
  3 42  1  0
  3 43  1  0
  4  5  2  0
  4  6  2  0
  4  7  1  1
  7  8  1  0
  7 44  1  0
  8  9  2  0
  8 35  1  0
  9 10  1  0
  9 45  1  0
 10 11  2  0
 10 46  1  0
 11 12  1  0
 11 13  1  0
 13 14  1  0
 13 35  2  0
 14 15  1  0
 14 47  1  0
 15 16  2  0
 15 17  1  0
 17 18  2  0
 17 31  1  0
 18 19  1  0
 18 48  1  0
 19 20  1  0
 20 21  1  0
 20 31  2  0
 21 22  1  0
 21 49  1  0
 21 50  1  0
 22 23  1  0
 22 51  1  0
 23 24  1  0
 23 30  1  0
 23 52  1  6
 24 25  1  0
 24 53  1  0
 24 54  1  0
 25 26  1  0
 25 55  1  0
 25 56  1  0
 26 27  1  6
 26 28  1  0
 26 29  1  0
 29 30  1  0
 29 57  1  0
 29 58  1  0
 30 59  1  0
 30 60  1  0
 31 32  1  0
 32 33  2  0
 33 34  1  0
 33 61  1  0
 34 62  1  0
 34 63  1  0
 35 36  1  0
M  END

