
     RDKit          3D

 53 59  0  0  0  0  0  0  0  0999 V2000
   -3.1321    0.9211   -1.7988 C   0  0  0  0  0  0  0  0  0  0  0  0
   -3.2095   -0.4788   -1.9228 C   0  0  0  0  0  0  0  0  0  0  0  0
   -2.2353   -1.2738   -1.3354 C   0  0  0  0  0  0  0  0  0  0  0  0
   -1.1475   -0.7213   -0.6108 C   0  0  0  0  0  0  0  0  0  0  0  0
   -1.1167    0.6878   -0.4993 C   0  0  0  0  0  0  0  0  0  0  0  0
   -2.0942    1.5083   -1.0881 C   0  0  0  0  0  0  0  0  0  0  0  0
   -0.1481    1.3487    0.1881 O   0  0  0  0  0  0  0  0  0  0  0  0
    0.8717    0.7175    0.8280 C   0  0  0  0  0  0  0  0  0  0  0  0
    1.7835    1.5670    1.4777 C   0  0  0  0  0  0  0  0  0  0  0  0
    2.8670    1.0129    2.1456 C   0  0  0  0  0  0  0  0  0  0  0  0
    3.0551   -0.3818    2.1664 C   0  0  0  0  0  0  0  0  0  0  0  0
    2.1446   -1.2059    1.5196 C   0  0  0  0  0  0  0  0  0  0  0  0
    1.0139   -0.6892    0.8354 C   0  0  0  0  0  0  0  0  0  0  0  0
   -0.0341   -1.5416    0.0820 B   0  0  0  0  0  0  0  0  0  0  0  0
    0.0274   -3.1158    0.0245 C   0  0  0  0  0  0  0  0  0  0  0  0
    0.0684   -3.8986    1.1979 C   0  0  0  0  0  0  0  0  0  0  0  0
    0.1019   -5.2934    1.1545 C   0  0  0  0  0  0  0  0  0  0  0  0
    0.1374   -5.9589   -0.0798 C   0  0  0  0  0  0  0  0  0  0  0  0
    0.1921   -7.3771   -0.1318 N   0  0  0  0  0  0  0  0  0  0  0  0
   -0.7198   -8.2074   -0.7912 C   0  0  0  0  0  0  0  0  0  0  0  0
   -1.8798   -7.8720   -1.5017 C   0  0  0  0  0  0  0  0  0  0  0  0
   -2.6325   -8.9115   -2.0498 C   0  0  0  0  0  0  0  0  0  0  0  0
   -2.2488  -10.2570   -1.8947 C   0  0  0  0  0  0  0  0  0  0  0  0
   -1.1008  -10.5876   -1.1762 C   0  0  0  0  0  0  0  0  0  0  0  0
   -0.3262   -9.5620   -0.6147 C   0  0  0  0  0  0  0  0  0  0  0  0
    0.8814   -9.5448    0.1874 C   0  0  0  0  0  0  0  0  0  0  0  0
    1.7355  -10.5457    0.6729 C   0  0  0  0  0  0  0  0  0  0  0  0
    2.8561  -10.1811    1.4178 C   0  0  0  0  0  0  0  0  0  0  0  0
    3.1337   -8.8251    1.6744 C   0  0  0  0  0  0  0  0  0  0  0  0
    2.3005   -7.8095    1.2034 C   0  0  0  0  0  0  0  0  0  0  0  0
    1.1684   -8.1806    0.4661 C   0  0  0  0  0  0  0  0  0  0  0  0
    0.1177   -5.2041   -1.2620 C   0  0  0  0  0  0  0  0  0  0  0  0
    0.0432   -3.8115   -1.2031 C   0  0  0  0  0  0  0  0  0  0  0  0
   -3.8962    1.5537   -2.2582 H   0  0  0  0  0  0  0  0  0  0  0  0
   -4.0358   -0.9335   -2.4741 H   0  0  0  0  0  0  0  0  0  0  0  0
   -2.3038   -2.3607   -1.4215 H   0  0  0  0  0  0  0  0  0  0  0  0
   -2.0158    2.5907   -0.9700 H   0  0  0  0  0  0  0  0  0  0  0  0
    1.6196    2.6456    1.4393 H   0  0  0  0  0  0  0  0  0  0  0  0
    3.5804    1.6683    2.6521 H   0  0  0  0  0  0  0  0  0  0  0  0
    3.9166   -0.8092    2.6846 H   0  0  0  0  0  0  0  0  0  0  0  0
    2.2990   -2.2873    1.5256 H   0  0  0  0  0  0  0  0  0  0  0  0
    0.0465   -3.4085    2.1753 H   0  0  0  0  0  0  0  0  0  0  0  0
    0.0959   -5.8755    2.0784 H   0  0  0  0  0  0  0  0  0  0  0  0
   -2.1907   -6.8330   -1.6208 H   0  0  0  0  0  0  0  0  0  0  0  0
   -3.5408   -8.6727   -2.6090 H   0  0  0  0  0  0  0  0  0  0  0  0
   -2.8600  -11.0468   -2.3379 H   0  0  0  0  0  0  0  0  0  0  0  0
   -0.8089  -11.6331   -1.0483 H   0  0  0  0  0  0  0  0  0  0  0  0
    1.5260  -11.5984    0.4662 H   0  0  0  0  0  0  0  0  0  0  0  0
    3.5284  -10.9516    1.8025 H   0  0  0  0  0  0  0  0  0  0  0  0
    4.0220   -8.5585    2.2529 H   0  0  0  0  0  0  0  0  0  0  0  0
    2.5293   -6.7613    1.4010 H   0  0  0  0  0  0  0  0  0  0  0  0
    0.1657   -5.7148   -2.2260 H   0  0  0  0  0  0  0  0  0  0  0  0
    0.0240   -3.2510   -2.1420 H   0  0  0  0  0  0  0  0  0  0  0  0
  1  2  2  0
  1  6  1  0
  1 34  1  0
  2  3  1  0
  2 35  1  0
  3  4  2  0
  3 36  1  0
  4  5  1  0
  4 14  1  0
  5  6  2  0
  5  7  1  0
  6 37  1  0
  7  8  1  0
  8  9  2  0
  8 13  1  0
  9 10  1  0
  9 38  1  0
 10 11  2  0
 10 39  1  0
 11 12  1  0
 11 40  1  0
 12 13  2  0
 12 41  1  0
 13 14  1  0
 14 15  1  0
 15 16  2  0
 15 33  1  0
 16 17  1  0
 16 42  1  0
 17 18  2  0
 17 43  1  0
 18 19  1  0
 18 32  1  0
 19 20  1  0
 19 31  1  0
 20 21  2  0
 20 25  1  0
 21 22  1  0
 21 44  1  0
 22 23  2  0
 22 45  1  0
 23 24  1  0
 23 46  1  0
 24 25  2  0
 24 47  1  0
 25 26  1  0
 26 27  1  0
 26 31  2  0
 27 28  2  0
 27 48  1  0
 28 29  1  0
 28 49  1  0
 29 30  2  0
 29 50  1  0
 30 31  1  0
 30 51  1  0
 32 33  2  0
 32 52  1  0
 33 53  1  0
M  END

