
     RDKit          3D

 27 27  0  0  0  0  0  0  0  0999 V2000
    3.2089    0.4793    1.8971 C   0  0  0  0  0  0  0  0  0  0  0  0
    2.8698    0.3331    0.4138 C   0  0  0  0  0  0  0  0  0  0  0  0
    3.1040   -1.0737   -0.1512 C   0  0  0  0  0  0  0  0  0  0  0  0
    4.4915   -1.5059   -0.0923 N   0  0  0  0  0  0  0  0  0  0  0  0
    4.8991   -2.5690    0.6771 C   0  0  0  0  0  0  0  0  0  0  0  0
    4.1389   -3.2437    1.3486 O   0  0  0  0  0  0  0  0  0  0  0  0
    6.2750   -2.7980    0.6074 N   0  0  0  0  0  0  0  0  0  0  0  0
    7.0021   -3.7999    1.2469 C   0  0  0  0  0  0  0  0  0  0  0  0
    6.4598   -4.7701    2.1083 C   0  0  0  0  0  0  0  0  0  0  0  0
    7.3134   -5.7112    2.6765 C   0  0  0  0  0  0  0  0  0  0  0  0
    6.7883   -6.6322    3.4952 F   0  0  0  0  0  0  0  0  0  0  0  0
    8.6859   -5.7463    2.4386 C   0  0  0  0  0  0  0  0  0  0  0  0
    9.2099   -4.7798    1.5839 C   0  0  0  0  0  0  0  0  0  0  0  0
   10.5166   -4.7571    1.3126 F   0  0  0  0  0  0  0  0  0  0  0  0
    8.3878   -3.8229    0.9975 C   0  0  0  0  0  0  0  0  0  0  0  0
    8.9134   -2.8942    0.1712 F   0  0  0  0  0  0  0  0  0  0  0  0
    3.0032    1.5007    2.2538 H   0  0  0  0  0  0  0  0  0  0  0  0
    4.2731    0.2683    2.0887 H   0  0  0  0  0  0  0  0  0  0  0  0
    2.6210   -0.2207    2.5123 H   0  0  0  0  0  0  0  0  0  0  0  0
    3.4502    1.0649   -0.1795 H   0  0  0  0  0  0  0  0  0  0  0  0
    1.8091    0.5872    0.2418 H   0  0  0  0  0  0  0  0  0  0  0  0
    2.7522   -1.1176   -1.1974 H   0  0  0  0  0  0  0  0  0  0  0  0
    2.5250   -1.8158    0.4174 H   0  0  0  0  0  0  0  0  0  0  0  0
    5.1747   -0.9820   -0.6267 H   0  0  0  0  0  0  0  0  0  0  0  0
    6.8341   -2.1895    0.0210 H   0  0  0  0  0  0  0  0  0  0  0  0
    5.3943   -4.7779    2.3213 H   0  0  0  0  0  0  0  0  0  0  0  0
    9.3292   -6.4962    2.8980 H   0  0  0  0  0  0  0  0  0  0  0  0
  1  2  1  0
  1 17  1  0
  1 18  1  0
  1 19  1  0
  2  3  1  0
  2 20  1  0
  2 21  1  0
  3  4  1  0
  3 22  1  0
  3 23  1  0
  4  5  1  0
  4 24  1  0
  5  6  2  0
  5  7  1  0
  7  8  1  0
  7 25  1  0
  8  9  2  0
  8 15  1  0
  9 10  1  0
  9 26  1  0
 10 11  1  0
 10 12  2  0
 12 13  1  0
 12 27  1  0
 13 14  1  0
 13 15  2  0
 15 16  1  0
M  END

