
     RDKit          3D

 64 70  0  0  0  0  0  0  0  0999 V2000
    1.5187    1.1287   -0.0652 C   0  0  0  0  0  0  0  0  0  0  0  0
    2.8609    0.4070   -0.1937 C   0  0  0  0  0  0  0  0  0  0  0  0
    3.0993   -0.6247    0.9130 C   0  0  0  0  0  0  0  0  0  0  0  0
    4.4490   -1.3327    0.7667 C   0  0  0  0  0  0  0  0  0  0  0  0
    4.6981   -2.3300    1.8211 N   0  0  0  0  0  0  0  0  0  0  0  0
    4.2331   -3.6340    1.6035 C   0  0  0  0  0  0  0  0  0  0  0  0
    3.6316   -3.9276    0.5874 O   0  0  0  0  0  0  0  0  0  0  0  0
    4.5139   -4.6297    2.6742 C   0  0  0  0  0  0  0  0  0  0  0  0
    3.9116   -5.8719    2.6230 C   0  0  0  0  0  0  0  0  0  0  0  0
    4.1566   -6.8188    3.6332 C   0  0  0  0  0  0  0  0  0  0  0  0
    2.8453   -8.1986    3.7398 Br  0  0  0  0  0  0  0  0  0  0  0  0
    5.1676   -6.6284    4.6024 C   0  0  0  0  0  0  0  0  0  0  0  0
    5.6638   -7.6633    5.5140 C   0  0  0  0  0  0  0  0  0  0  0  0
    5.7085   -9.0459    5.2233 C   0  0  0  0  0  0  0  0  0  0  0  0
    5.7427   -9.7459    3.4503 Br  0  0  0  0  0  0  0  0  0  0  0  0
    5.9451  -10.0055    6.2234 C   0  0  0  0  0  0  0  0  0  0  0  0
    6.3510   -9.6100    7.4831 C   0  0  0  0  0  0  0  0  0  0  0  0
    6.6476   -8.2463    7.7118 C   0  0  0  0  0  0  0  0  0  0  0  0
    7.3998   -7.8974    8.8575 C   0  0  0  0  0  0  0  0  0  0  0  0
    7.9987   -6.6535    8.9115 C   0  0  0  0  0  0  0  0  0  0  0  0
    7.7553   -5.7066    7.9009 C   0  0  0  0  0  0  0  0  0  0  0  0
    9.0662   -4.3262    7.7974 Br  0  0  0  0  0  0  0  0  0  0  0  0
    6.7464   -5.8974    6.9294 C   0  0  0  0  0  0  0  0  0  0  0  0
    6.2509   -4.8627    6.0174 C   0  0  0  0  0  0  0  0  0  0  0  0
    6.2063   -3.4800    6.3075 C   0  0  0  0  0  0  0  0  0  0  0  0
    6.1697   -2.7790    8.0800 Br  0  0  0  0  0  0  0  0  0  0  0  0
    5.9706   -2.5208    5.3067 C   0  0  0  0  0  0  0  0  0  0  0  0
    5.5671   -2.9164    4.0461 C   0  0  0  0  0  0  0  0  0  0  0  0
    5.2693   -4.2804    3.8180 C   0  0  0  0  0  0  0  0  0  0  0  0
    5.6187   -5.2696    4.7854 C   0  0  0  0  0  0  0  0  0  0  0  0
    5.3096   -1.8870    3.0019 C   0  0  0  0  0  0  0  0  0  0  0  0
    5.6102   -0.7183    3.1566 O   0  0  0  0  0  0  0  0  0  0  0  0
    6.2968   -7.2564    6.7455 C   0  0  0  0  0  0  0  0  0  0  0  0
    7.6792   -8.8913    9.9308 C   0  0  0  0  0  0  0  0  0  0  0  0
    8.2554   -8.5833   10.9569 O   0  0  0  0  0  0  0  0  0  0  0  0
    7.2461  -10.2054    9.6982 N   0  0  0  0  0  0  0  0  0  0  0  0
    7.4769  -11.2137   10.7515 C   0  0  0  0  0  0  0  0  0  0  0  0
    8.6862  -12.1225   10.5026 C   0  0  0  0  0  0  0  0  0  0  0  0
   10.0443  -11.4171   10.4384 C   0  0  0  0  0  0  0  0  0  0  0  0
   11.2091  -12.3922   10.2588 C   0  0  0  0  0  0  0  0  0  0  0  0
    6.6092  -10.6387    8.5276 C   0  0  0  0  0  0  0  0  0  0  0  0
    6.2886  -11.8034    8.3812 O   0  0  0  0  0  0  0  0  0  0  0  0
    1.3760    1.8617   -0.8749 H   0  0  0  0  0  0  0  0  0  0  0  0
    1.4460    1.6712    0.8922 H   0  0  0  0  0  0  0  0  0  0  0  0
    0.6765    0.4180   -0.1067 H   0  0  0  0  0  0  0  0  0  0  0  0
    3.6808    1.1480   -0.1838 H   0  0  0  0  0  0  0  0  0  0  0  0
    2.9177   -0.0941   -1.1770 H   0  0  0  0  0  0  0  0  0  0  0  0
    2.2946   -1.3795    0.8952 H   0  0  0  0  0  0  0  0  0  0  0  0
    3.0600   -0.1277    1.8974 H   0  0  0  0  0  0  0  0  0  0  0  0
    5.2674   -0.6030    0.8188 H   0  0  0  0  0  0  0  0  0  0  0  0
    4.4964   -1.8640   -0.1927 H   0  0  0  0  0  0  0  0  0  0  0  0
    3.2023   -6.0837    1.8221 H   0  0  0  0  0  0  0  0  0  0  0  0
    5.8682  -11.0706    6.0016 H   0  0  0  0  0  0  0  0  0  0  0  0
    8.7045   -6.4402    9.7150 H   0  0  0  0  0  0  0  0  0  0  0  0
    6.0469   -1.4556    5.5280 H   0  0  0  0  0  0  0  0  0  0  0  0
    6.5677  -11.8270   10.8084 H   0  0  0  0  0  0  0  0  0  0  0  0
    7.5971  -10.6570   11.6889 H   0  0  0  0  0  0  0  0  0  0  0  0
    8.5143  -12.7005    9.5790 H   0  0  0  0  0  0  0  0  0  0  0  0
    8.6979  -12.8619   11.3239 H   0  0  0  0  0  0  0  0  0  0  0  0
   10.1923  -10.8163   11.3520 H   0  0  0  0  0  0  0  0  0  0  0  0
   10.0461  -10.6939    9.6037 H   0  0  0  0  0  0  0  0  0  0  0  0
   11.2691  -13.1050   11.0986 H   0  0  0  0  0  0  0  0  0  0  0  0
   12.1735  -11.8627   10.2036 H   0  0  0  0  0  0  0  0  0  0  0  0
   11.0997  -12.9834    9.3341 H   0  0  0  0  0  0  0  0  0  0  0  0
  1  2  1  0
  1 43  1  0
  1 44  1  0
  1 45  1  0
  2  3  1  0
  2 46  1  0
  2 47  1  0
  3  4  1  0
  3 48  1  0
  3 49  1  0
  4  5  1  0
  4 50  1  0
  4 51  1  0
  5  6  1  0
  5 31  1  0
  6  7  2  0
  6  8  1  0
  8  9  1  0
  8 29  2  0
  9 10  2  0
  9 52  1  0
 10 11  1  0
 10 12  1  0
 12 13  1  0
 12 30  2  0
 13 14  2  0
 13 33  1  0
 14 15  1  0
 14 16  1  0
 16 17  2  0
 16 53  1  0
 17 18  1  0
 17 41  1  0
 18 19  1  0
 18 33  2  0
 19 20  2  0
 19 34  1  0
 20 21  1  0
 20 54  1  0
 21 22  1  0
 21 23  2  0
 23 24  1  0
 23 33  1  0
 24 25  2  0
 24 30  1  0
 25 26  1  0
 25 27  1  0
 27 28  2  0
 27 55  1  0
 28 29  1  0
 28 31  1  0
 29 30  1  0
 31 32  2  0
 34 35  2  0
 34 36  1  0
 36 37  1  0
 36 41  1  0
 37 38  1  0
 37 56  1  0
 37 57  1  0
 38 39  1  0
 38 58  1  0
 38 59  1  0
 39 40  1  0
 39 60  1  0
 39 61  1  0
 40 62  1  0
 40 63  1  0
 40 64  1  0
 41 42  2  0
M  END

