
     RDKit          3D

 35 37  0  0  0  0  0  0  0  0999 V2000
    1.1136    0.3730    0.0337 N   0  0  0  0  0  0  0  0  0  0  0  0
    2.5547    0.0856   -0.0780 C   0  0  1  0  0  0  0  0  0  0  0  0
    2.9026   -0.7776   -1.2902 C   0  0  0  0  0  0  0  0  0  0  0  0
    3.3025   -0.1663   -2.4990 C   0  0  0  0  0  0  0  0  0  0  0  0
    3.5181   -0.9598   -3.6375 C   0  0  0  0  0  0  0  0  0  0  0  0
    3.3723   -2.3433   -3.5917 C   0  0  0  0  0  0  0  0  0  0  0  0
    3.0207   -2.9583   -2.3883 C   0  0  0  0  0  0  0  0  0  0  0  0
    2.7826   -2.1888   -1.2417 C   0  0  0  0  0  0  0  0  0  0  0  0
    2.4617   -2.9185    0.0263 C   0  0  0  0  0  0  0  0  0  0  0  0
    3.4642   -3.5149    0.8089 C   0  0  0  0  0  0  0  0  0  0  0  0
    3.1206   -4.2325    1.9581 C   0  0  0  0  0  0  0  0  0  0  0  0
    1.8613   -4.3982    2.3711 N   0  0  0  0  0  0  0  0  0  0  0  0
    0.8925   -3.8463    1.6427 C   0  0  0  0  0  0  0  0  0  0  0  0
    1.1557   -3.1138    0.4846 C   0  0  0  0  0  0  0  0  0  0  0  0
    0.1192   -2.5861   -0.1927 F   0  0  0  0  0  0  0  0  0  0  0  0
    3.5956    1.3231   -2.5839 C   0  0  0  0  0  0  0  0  0  0  0  0
    3.0928    2.1521   -1.4002 C   0  0  0  0  0  0  0  0  0  0  0  0
    3.3352    1.4273   -0.0731 C   0  0  1  0  0  0  0  0  0  0  0  0
    4.4127    1.1866   -0.0109 H   0  0  0  0  0  0  0  0  0  0  0  0
    3.0011    2.2881    1.0535 N   0  0  0  0  0  0  0  0  0  0  0  0
    0.5978   -0.4549    0.3235 H   0  0  0  0  0  0  0  0  0  0  0  0
    0.7336    0.6175   -0.8813 H   0  0  0  0  0  0  0  0  0  0  0  0
    2.8342   -0.4563    0.8400 H   0  0  0  0  0  0  0  0  0  0  0  0
    3.8193   -0.4759   -4.5716 H   0  0  0  0  0  0  0  0  0  0  0  0
    3.5445   -2.9473   -4.4860 H   0  0  0  0  0  0  0  0  0  0  0  0
    2.9264   -4.0456   -2.3336 H   0  0  0  0  0  0  0  0  0  0  0  0
    4.5109   -3.4140    0.5127 H   0  0  0  0  0  0  0  0  0  0  0  0
    3.9032   -4.6956    2.5698 H   0  0  0  0  0  0  0  0  0  0  0  0
   -0.1463   -3.9779    1.9673 H   0  0  0  0  0  0  0  0  0  0  0  0
    3.2051    1.7220   -3.5353 H   0  0  0  0  0  0  0  0  0  0  0  0
    4.6943    1.4340   -2.6508 H   0  0  0  0  0  0  0  0  0  0  0  0
    2.0131    2.3634   -1.5008 H   0  0  0  0  0  0  0  0  0  0  0  0
    3.5913    3.1325   -1.3719 H   0  0  0  0  0  0  0  0  0  0  0  0
    3.3588    1.8772    1.9172 H   0  0  0  0  0  0  0  0  0  0  0  0
    1.9821    2.2735    1.1511 H   0  0  0  0  0  0  0  0  0  0  0  0
  1  2  1  0
  1 21  1  0
  1 22  1  0
  2  3  1  0
  2 18  1  0
  2 23  1  1
  3  4  2  0
  3  8  1  0
  4  5  1  0
  4 16  1  0
  5  6  2  0
  5 24  1  0
  6  7  1  0
  6 25  1  0
  7  8  2  0
  7 26  1  0
  8  9  1  0
  9 10  2  0
  9 14  1  0
 10 11  1  0
 10 27  1  0
 11 12  2  0
 11 28  1  0
 12 13  1  0
 13 14  2  0
 13 29  1  0
 14 15  1  0
 16 17  1  0
 16 30  1  0
 16 31  1  0
 17 18  1  0
 17 32  1  0
 17 33  1  0
 18 19  1  1
 18 20  1  0
 20 34  1  0
 20 35  1  0
M  END

