
     RDKit          3D

 48 50  0  0  0  0  0  0  0  0999 V2000
    0.1548    0.6607    0.2594 C   0  0  0  0  0  0  0  0  0  0  0  0
    1.3950    0.0570    0.5630 O   0  0  0  0  0  0  0  0  0  0  0  0
    2.3709    0.7840    1.1644 C   0  0  0  0  0  0  0  0  0  0  0  0
    2.2362    2.1380    1.4949 C   0  0  0  0  0  0  0  0  0  0  0  0
    3.2550    2.8253    2.1625 C   0  0  0  0  0  0  0  0  0  0  0  0
    4.4203    2.1373    2.4948 C   0  0  0  0  0  0  0  0  0  0  0  0
    5.7277    2.9743    3.3974 S   0  0  1  0  0  0  0  0  0  0  0  0
    6.9716    2.2434    3.1446 O   0  0  0  0  0  0  0  0  0  0  0  0
    5.5995    4.4072    3.1283 O   0  0  0  0  0  0  0  0  0  0  0  0
    5.3947    2.7746    5.0412 N   0  0  0  0  0  0  0  0  0  0  0  0
    4.2969    3.5481    5.6013 C   0  0  0  0  0  0  0  0  0  0  0  0
    5.6206    1.4574    5.6167 C   0  0  0  0  0  0  0  0  0  0  0  0
    4.5899    0.7963    2.1329 C   0  0  0  0  0  0  0  0  0  0  0  0
    3.5796    0.0894    1.4664 C   0  0  0  0  0  0  0  0  0  0  0  0
    3.7506   -1.2669    1.1768 N   0  0  0  0  0  0  0  0  0  0  0  0
    3.4790   -1.8122   -0.1528 C   0  0  0  0  0  0  0  0  0  0  0  0
    3.7268   -3.2827   -0.1798 C   0  0  0  0  0  0  0  0  0  0  0  0
    2.9499   -4.2345   -0.5912 N   0  0  0  0  0  0  0  0  0  0  0  0
    3.6822   -5.3926   -0.4239 C   0  0  0  0  0  0  0  0  0  0  0  0
    4.9109   -5.0894    0.1053 C   0  0  0  0  0  0  0  0  0  0  0  0
    6.0841   -5.8595    0.4984 C   0  0  0  0  0  0  0  0  0  0  0  0
    6.0718   -7.2669    0.4301 C   0  0  0  0  0  0  0  0  0  0  0  0
    7.1882   -8.0131    0.7981 C   0  0  0  0  0  0  0  0  0  0  0  0
    8.3406   -7.3567    1.2454 C   0  0  0  0  0  0  0  0  0  0  0  0
    9.7423   -8.2891    1.7097 Cl  0  0  0  0  0  0  0  0  0  0  0  0
    8.3766   -5.9616    1.3233 C   0  0  0  0  0  0  0  0  0  0  0  0
    7.2549   -5.2220    0.9510 C   0  0  0  0  0  0  0  0  0  0  0  0
    4.9377   -3.7251    0.2559 O   0  0  0  0  0  0  0  0  0  0  0  0
   -0.4675   -0.1215   -0.1947 H   0  0  0  0  0  0  0  0  0  0  0  0
    0.2681    1.4922   -0.4587 H   0  0  0  0  0  0  0  0  0  0  0  0
   -0.3469    1.0374    1.1680 H   0  0  0  0  0  0  0  0  0  0  0  0
    1.3206    2.6713    1.2398 H   0  0  0  0  0  0  0  0  0  0  0  0
    3.1518    3.8846    2.4001 H   0  0  0  0  0  0  0  0  0  0  0  0
    4.2919    4.5505    5.1559 H   0  0  0  0  0  0  0  0  0  0  0  0
    4.4593    3.6549    6.6858 H   0  0  0  0  0  0  0  0  0  0  0  0
    3.3077    3.0718    5.4454 H   0  0  0  0  0  0  0  0  0  0  0  0
    6.5271    1.0192    5.1814 H   0  0  0  0  0  0  0  0  0  0  0  0
    4.7675    0.7655    5.4642 H   0  0  0  0  0  0  0  0  0  0  0  0
    5.7808    1.5700    6.7010 H   0  0  0  0  0  0  0  0  0  0  0  0
    5.5389    0.3020    2.3514 H   0  0  0  0  0  0  0  0  0  0  0  0
    4.6385   -1.6079    1.5340 H   0  0  0  0  0  0  0  0  0  0  0  0
    4.1017   -1.3260   -0.9353 H   0  0  0  0  0  0  0  0  0  0  0  0
    2.4304   -1.6548   -0.4223 H   0  0  0  0  0  0  0  0  0  0  0  0
    3.2822   -6.3680   -0.6928 H   0  0  0  0  0  0  0  0  0  0  0  0
    5.1761   -7.7896    0.0877 H   0  0  0  0  0  0  0  0  0  0  0  0
    7.1715   -9.1027    0.7433 H   0  0  0  0  0  0  0  0  0  0  0  0
    9.2811   -5.4609    1.6724 H   0  0  0  0  0  0  0  0  0  0  0  0
    7.2868   -4.1329    1.0082 H   0  0  0  0  0  0  0  0  0  0  0  0
  1  2  1  0
  1 29  1  0
  1 30  1  0
  1 31  1  0
  2  3  1  0
  3  4  2  0
  3 14  1  0
  4  5  1  0
  4 32  1  0
  5  6  2  0
  5 33  1  0
  6  7  1  0
  6 13  1  0
  7  8  2  0
  7  9  2  0
  7 10  1  1
 10 11  1  0
 10 12  1  0
 11 34  1  0
 11 35  1  0
 11 36  1  0
 12 37  1  0
 12 38  1  0
 12 39  1  0
 13 14  2  0
 13 40  1  0
 14 15  1  0
 15 16  1  0
 15 41  1  0
 16 17  1  0
 16 42  1  0
 16 43  1  0
 17 18  2  0
 17 28  1  0
 18 19  1  0
 19 20  2  0
 19 44  1  0
 20 21  1  0
 20 28  1  0
 21 22  2  0
 21 27  1  0
 22 23  1  0
 22 45  1  0
 23 24  2  0
 23 46  1  0
 24 25  1  0
 24 26  1  0
 26 27  2  0
 26 47  1  0
 27 48  1  0
M  END

