
     RDKit          3D

 35 36  0  0  0  0  0  0  0  0999 V2000
    0.5867   -0.4443   -1.6267 C   0  0  0  0  0  0  0  0  0  0  0  0
    2.0126   -0.1939   -2.1332 C   0  0  1  0  0  0  0  0  0  0  0  0
    2.1151    1.2991   -2.5251 C   0  0  0  0  0  0  0  0  0  0  0  0
    1.6468    1.7497   -3.5371 O   0  0  0  0  0  0  0  0  0  0  0  0
    2.7297    2.0419   -1.5979 O   0  0  0  0  0  0  0  0  0  0  0  0
    3.0749   -0.4965   -1.1564 N   0  0  0  0  0  0  0  0  0  0  0  0
    2.8149   -1.5479   -0.1724 C   0  0  0  0  0  0  0  0  0  0  0  0
    4.4032   -0.6201   -1.7899 C   0  0  0  0  0  0  0  0  0  0  0  0
    4.5884   -1.7852   -2.7231 C   0  0  0  0  0  0  0  0  0  0  0  0
    4.5755   -1.8257   -4.1035 C   0  0  0  0  0  0  0  0  0  0  0  0
    4.7640   -3.1409   -4.4098 N   0  0  0  0  0  0  0  0  0  0  0  0
    4.9117   -3.7823   -5.6698 C   0  0  0  0  0  0  0  0  0  0  0  0
    5.9494   -4.7123   -5.8116 C   0  0  0  0  0  0  0  0  0  0  0  0
    6.1270   -5.3863   -7.0174 C   0  0  0  0  0  0  0  0  0  0  0  0
    5.2812   -5.1310   -8.0964 C   0  0  0  0  0  0  0  0  0  0  0  0
    4.2398   -4.2083   -7.9630 C   0  0  0  0  0  0  0  0  0  0  0  0
    3.1914   -3.9232   -9.3198 Cl  0  0  0  0  0  0  0  0  0  0  0  0
    4.0348   -3.5313   -6.7454 C   0  0  0  0  0  0  0  0  0  0  0  0
    2.6954   -2.4349   -6.5824 Cl  0  0  0  0  0  0  0  0  0  0  0  0
    4.8927   -3.8714   -3.2710 N   0  0  0  0  0  0  0  0  0  0  0  0
    4.7837   -3.0637   -2.2722 N   0  0  0  0  0  0  0  0  0  0  0  0
   -0.1184   -0.1045   -2.3984 H   0  0  0  0  0  0  0  0  0  0  0  0
    0.3800    0.1199   -0.7036 H   0  0  0  0  0  0  0  0  0  0  0  0
    0.4012   -1.5115   -1.4395 H   0  0  0  0  0  0  0  0  0  0  0  0
    2.1385   -0.7696   -3.0692 H   0  0  0  0  0  0  0  0  0  0  0  0
    3.0252    1.3813   -0.9224 H   0  0  0  0  0  0  0  0  0  0  0  0
    1.9281   -1.3026    0.4267 H   0  0  0  0  0  0  0  0  0  0  0  0
    3.6734   -1.6065    0.5133 H   0  0  0  0  0  0  0  0  0  0  0  0
    2.6819   -2.5517   -0.6164 H   0  0  0  0  0  0  0  0  0  0  0  0
    5.1493   -0.6949   -0.9835 H   0  0  0  0  0  0  0  0  0  0  0  0
    4.6142    0.3117   -2.3371 H   0  0  0  0  0  0  0  0  0  0  0  0
    4.4605   -1.0530   -4.8568 H   0  0  0  0  0  0  0  0  0  0  0  0
    6.6006   -4.8943   -4.9568 H   0  0  0  0  0  0  0  0  0  0  0  0
    6.9374   -6.1105   -7.1220 H   0  0  0  0  0  0  0  0  0  0  0  0
    5.4130   -5.6415   -9.0513 H   0  0  0  0  0  0  0  0  0  0  0  0
  1  2  1  0
  1 22  1  0
  1 23  1  0
  1 24  1  0
  2  3  1  0
  2  6  1  0
  2 25  1  6
  3  4  2  0
  3  5  1  0
  5 26  1  0
  6  7  1  0
  6  8  1  0
  7 27  1  0
  7 28  1  0
  7 29  1  0
  8  9  1  0
  8 30  1  0
  8 31  1  0
  9 10  2  0
  9 21  1  0
 10 11  1  0
 10 32  1  0
 11 12  1  0
 11 20  1  0
 12 13  2  0
 12 18  1  0
 13 14  1  0
 13 33  1  0
 14 15  2  0
 14 34  1  0
 15 16  1  0
 15 35  1  0
 16 17  1  0
 16 18  2  0
 18 19  1  0
 20 21  2  0
M  END

