
     RDKit          3D

 42 42  0  0  0  0  0  0  0  0999 V2000
    1.7382   -1.4613   -1.6334 C   0  0  0  0  0  0  0  0  0  0  0  0
    3.0552   -2.2369   -1.7694 C   0  0  1  0  0  0  0  0  0  0  0  0
    2.9265   -3.3567   -2.8104 C   0  0  0  0  0  0  0  0  0  0  0  0
    4.2451   -1.3255   -2.1259 C   0  0  0  0  0  0  0  0  0  0  0  0
    4.5908   -0.2408   -1.1070 C   0  0  1  0  0  0  0  0  0  0  0  0
    3.7107    0.3933   -0.9035 H   0  0  0  0  0  0  0  0  0  0  0  0
    4.9793   -0.8377    0.1783 N   0  0  0  0  0  0  0  0  0  0  0  0
    4.9328   -0.1697    1.3498 C   0  0  0  0  0  0  0  0  0  0  0  0
    4.6949    1.0398    1.4108 O   0  0  0  0  0  0  0  0  0  0  0  0
    5.1410   -0.9950    2.6090 C   0  0  0  0  0  0  0  0  0  0  0  0
    5.5928   -0.1217    3.6757 N   0  0  0  0  0  0  0  0  0  0  0  0
    5.3633   -0.6277    5.2649 S   0  0  1  0  0  0  0  0  0  0  0  0
    5.3289    0.5851    6.0826 O   0  0  0  0  0  0  0  0  0  0  0  0
    4.2843   -1.6172    5.3065 O   0  0  0  0  0  0  0  0  0  0  0  0
    6.8857   -1.4587    5.6241 C   0  0  0  0  0  0  0  0  0  0  0  0
    7.7614   -1.1223    6.6332 C   0  0  0  0  0  0  0  0  0  0  0  0
    8.7673   -2.0538    6.5471 N   0  0  0  0  0  0  0  0  0  0  0  0
    9.9390   -2.1415    7.4017 C   0  0  0  0  0  0  0  0  0  0  0  0
    8.4489   -2.8835    5.5026 C   0  0  0  0  0  0  0  0  0  0  0  0
    7.3163   -2.5501    4.9281 N   0  0  0  0  0  0  0  0  0  0  0  0
    5.6932    0.7143   -1.6401 C   0  0  0  0  0  0  0  0  0  0  0  0
    6.2381    0.5531   -2.7006 O   0  0  0  0  0  0  0  0  0  0  0  0
    5.9741    1.7432   -0.8407 O   0  0  0  0  0  0  0  0  0  0  0  0
    0.9044   -2.1415   -1.3979 H   0  0  0  0  0  0  0  0  0  0  0  0
    1.4884   -0.9420   -2.5745 H   0  0  0  0  0  0  0  0  0  0  0  0
    1.7755   -0.7051   -0.8333 H   0  0  0  0  0  0  0  0  0  0  0  0
    3.2626   -2.7155   -0.7932 H   0  0  0  0  0  0  0  0  0  0  0  0
    2.7139   -2.9418   -3.8104 H   0  0  0  0  0  0  0  0  0  0  0  0
    2.1072   -4.0473   -2.5546 H   0  0  0  0  0  0  0  0  0  0  0  0
    3.8538   -3.9473   -2.8874 H   0  0  0  0  0  0  0  0  0  0  0  0
    4.0531   -0.8218   -3.0863 H   0  0  0  0  0  0  0  0  0  0  0  0
    5.1497   -1.9336   -2.3020 H   0  0  0  0  0  0  0  0  0  0  0  0
    5.2807   -1.8063    0.1773 H   0  0  0  0  0  0  0  0  0  0  0  0
    5.8749   -1.7993    2.4348 H   0  0  0  0  0  0  0  0  0  0  0  0
    4.1782   -1.4847    2.8533 H   0  0  0  0  0  0  0  0  0  0  0  0
    5.2769    0.8458    3.5646 H   0  0  0  0  0  0  0  0  0  0  0  0
    7.7406   -0.3224    7.3679 H   0  0  0  0  0  0  0  0  0  0  0  0
   10.5322   -1.2163    7.3453 H   0  0  0  0  0  0  0  0  0  0  0  0
   10.5645   -2.9800    7.0677 H   0  0  0  0  0  0  0  0  0  0  0  0
    9.6469   -2.3160    8.4484 H   0  0  0  0  0  0  0  0  0  0  0  0
    9.0918   -3.7160    5.2142 H   0  0  0  0  0  0  0  0  0  0  0  0
    5.4398    1.7034   -0.0088 H   0  0  0  0  0  0  0  0  0  0  0  0
  1  2  1  0
  1 24  1  0
  1 25  1  0
  1 26  1  0
  2  3  1  0
  2  4  1  0
  2 27  1  1
  3 28  1  0
  3 29  1  0
  3 30  1  0
  4  5  1  0
  4 31  1  0
  4 32  1  0
  5  6  1  1
  5  7  1  0
  5 21  1  0
  7  8  1  0
  7 33  1  0
  8  9  2  0
  8 10  1  0
 10 11  1  0
 10 34  1  0
 10 35  1  0
 12 11  1  6
 11 36  1  0
 12 13  2  0
 12 14  2  0
 12 15  1  0
 15 16  2  0
 15 20  1  0
 16 17  1  0
 16 37  1  0
 17 18  1  0
 17 19  1  0
 18 38  1  0
 18 39  1  0
 18 40  1  0
 19 20  2  0
 19 41  1  0
 21 22  2  0
 21 23  1  0
 23 42  1  0
M  END

