
     RDKit          3D

 39 42  0  0  0  0  0  0  0  0999 V2000
    2.4301    1.4150   -0.7304 O   0  0  0  0  0  0  0  0  0  0  0  0
    2.4988    0.3142   -0.2034 C   0  0  0  0  0  0  0  0  0  0  0  0
    1.9537   -0.8417   -0.7207 N   0  0  0  0  0  0  0  0  0  0  0  0
    1.2367   -1.0064   -1.9124 C   0  0  0  0  0  0  0  0  0  0  0  0
    0.9534    0.0407   -2.8078 C   0  0  0  0  0  0  0  0  0  0  0  0
    0.2371   -0.2189   -3.9776 C   0  0  0  0  0  0  0  0  0  0  0  0
   -0.2293   -1.5029   -4.2763 C   0  0  0  0  0  0  0  0  0  0  0  0
   -0.9258   -1.8081   -5.4248 O   0  0  0  0  0  0  0  0  0  0  0  0
   -1.8503   -0.9175   -5.8915 C   0  0  1  0  0  0  0  0  0  0  0  0
   -1.2558    0.0503   -6.6393 F   0  0  0  0  0  0  0  0  0  0  0  0
   -2.6800   -1.5896   -6.6969 F   0  0  0  0  0  0  0  0  0  0  0  0
    0.0563   -2.5485   -3.3820 C   0  0  0  0  0  0  0  0  0  0  0  0
   -0.5019   -4.1635   -3.7240 Cl  0  0  0  0  0  0  0  0  0  0  0  0
    0.7833   -2.3034   -2.2203 C   0  0  0  0  0  0  0  0  0  0  0  0
    3.1993    0.1181    1.0875 C   0  0  0  0  0  0  0  0  0  0  0  0
    3.8461    1.1198    1.8365 C   0  0  0  0  0  0  0  0  0  0  0  0
    4.3957    0.6633    2.9609 N   0  0  0  0  0  0  0  0  0  0  0  0
    4.1208   -0.6570    2.9776 N   0  0  0  0  0  0  0  0  0  0  0  0
    4.4846   -1.5657    3.9492 C   0  0  0  0  0  0  0  0  0  0  0  0
    5.2455   -1.1584    5.1183 C   0  0  0  0  0  0  0  0  0  0  0  0
    5.7291    0.0911    5.4829 C   0  0  0  0  0  0  0  0  0  0  0  0
    6.4331    0.0774    6.7155 C   0  0  0  0  0  0  0  0  0  0  0  0
    6.4851   -1.1728    7.2849 C   0  0  0  0  0  0  0  0  0  0  0  0
    5.6782   -2.3551    6.3305 S   0  0  0  0  0  0  0  0  0  0  0  0
    4.0670   -2.8749    3.7123 C   0  0  0  0  0  0  0  0  0  0  0  0
    3.3308   -3.2006    2.5547 C   0  0  0  0  0  0  0  0  0  0  0  0
    2.9919   -2.3153    1.6347 N   0  0  0  0  0  0  0  0  0  0  0  0
    3.3840   -1.0497    1.8432 C   0  0  0  0  0  0  0  0  0  0  0  0
    2.0958   -1.6833   -0.1593 H   0  0  0  0  0  0  0  0  0  0  0  0
    1.3083    1.0435   -2.5847 H   0  0  0  0  0  0  0  0  0  0  0  0
    0.0544    0.5917   -4.6843 H   0  0  0  0  0  0  0  0  0  0  0  0
   -2.4165   -0.4259   -5.0789 H   0  0  0  0  0  0  0  0  0  0  0  0
    0.9902   -3.1368   -1.5460 H   0  0  0  0  0  0  0  0  0  0  0  0
    3.9236    2.1749    1.5771 H   0  0  0  0  0  0  0  0  0  0  0  0
    5.5662    0.9686    4.8622 H   0  0  0  0  0  0  0  0  0  0  0  0
    6.8854    0.9619    7.1657 H   0  0  0  0  0  0  0  0  0  0  0  0
    6.9581   -1.4667    8.2214 H   0  0  0  0  0  0  0  0  0  0  0  0
    4.3117   -3.6575    4.4298 H   0  0  0  0  0  0  0  0  0  0  0  0
    3.0145   -4.2361    2.3908 H   0  0  0  0  0  0  0  0  0  0  0  0
  1  2  2  0
  2  3  1  0
  2 15  1  0
  3  4  1  0
  3 29  1  0
  4  5  2  0
  4 14  1  0
  5  6  1  0
  5 30  1  0
  6  7  2  0
  6 31  1  0
  7  8  1  0
  7 12  1  0
  8  9  1  0
  9 10  1  0
  9 11  1  0
  9 32  1  1
 12 13  1  0
 12 14  2  0
 14 33  1  0
 15 16  1  0
 15 28  2  0
 16 17  2  0
 16 34  1  0
 17 18  1  0
 18 19  1  0
 18 28  1  0
 19 20  1  0
 19 25  2  0
 20 21  2  0
 20 24  1  0
 21 22  1  0
 21 35  1  0
 22 23  2  0
 22 36  1  0
 23 24  1  0
 23 37  1  0
 25 26  1  0
 25 38  1  0
 26 27  2  0
 26 39  1  0
 27 28  1  0
M  END

