
     RDKit          3D

 71 75  0  0  0  0  0  0  0  0999 V2000
    0.6197    1.4457    0.1372 C   0  0  0  0  0  0  0  0  0  0  0  0
    2.1014    1.1626    0.0766 C   0  0  0  0  0  0  0  0  0  0  0  0
    2.8607    0.9960    1.2394 C   0  0  0  0  0  0  0  0  0  0  0  0
    4.2380    0.7318    1.1981 C   0  0  0  0  0  0  0  0  0  0  0  0
    5.0128    0.5556    2.4831 C   0  0  0  0  0  0  0  0  0  0  0  0
    4.8750    0.6346   -0.0582 C   0  0  0  0  0  0  0  0  0  0  0  0
    6.3420    0.3417   -0.1275 C   0  0  0  0  0  0  0  0  0  0  0  0
    6.7858   -1.0052   -0.1996 C   0  0  0  0  0  0  0  0  0  0  0  0
    6.0773   -2.2179   -0.2458 C   0  0  0  0  0  0  0  0  0  0  0  0
    7.0271   -3.2583   -0.3598 C   0  0  0  0  0  0  0  0  0  0  0  0
    6.7350   -4.6758   -0.4450 C   0  0  0  0  0  0  0  0  0  0  0  0
    7.6294   -5.6823   -0.5632 C   0  0  0  0  0  0  0  0  0  0  0  0
    7.2813   -7.1154   -0.6475 C   0  0  0  0  0  0  0  0  0  0  0  0
    8.1182   -7.9891   -0.7551 O   0  0  0  0  0  0  0  0  0  0  0  0
    5.9493   -7.3347   -0.5922 O   0  0  0  0  0  0  0  0  0  0  0  0
    5.3698   -8.6769   -0.6583 C   0  0  1  0  0  0  0  0  0  0  0  0
    5.8477   -9.5174    0.5315 C   0  0  0  0  0  0  0  0  0  0  0  0
    3.8664   -8.4080   -0.5582 C   0  0  0  0  0  0  0  0  0  0  0  0
    5.7119   -9.3338   -2.0007 C   0  0  0  0  0  0  0  0  0  0  0  0
    8.2925   -2.6223   -0.3768 C   0  0  0  0  0  0  0  0  0  0  0  0
    8.1434   -1.2914   -0.2797 N   0  0  0  0  0  0  0  0  0  0  0  0
    9.3090   -0.2633   -0.2012 B   0  0  1  0  0  0  0  0  0  0  0  0
   10.0177   -0.4743    0.9833 F   0  0  0  0  0  0  0  0  0  0  0  0
   10.1394   -0.4247   -1.3046 F   0  0  0  0  0  0  0  0  0  0  0  0
    8.6629    1.1714   -0.2032 N   0  0  0  0  0  0  0  0  0  0  0  0
    7.2676    1.3733   -0.1428 C   0  0  0  0  0  0  0  0  0  0  0  0
    7.0185    2.7797   -0.1481 C   0  0  0  0  0  0  0  0  0  0  0  0
    8.2279    3.4200   -0.2207 C   0  0  0  0  0  0  0  0  0  0  0  0
    9.2529    2.3979   -0.2477 C   0  0  0  0  0  0  0  0  0  0  0  0
   10.5690    2.6749   -0.3023 N   0  0  0  0  0  0  0  0  0  0  0  0
   11.0329    4.0676   -0.4320 C   0  0  0  0  0  0  0  0  0  0  0  0
   12.5446    3.9387   -0.6419 C   0  0  0  0  0  0  0  0  0  0  0  0
   12.8905    2.6559    0.1219 C   0  0  0  0  0  0  0  0  0  0  0  0
   11.7054    1.7379   -0.1853 C   0  0  0  0  0  0  0  0  0  0  0  0
    4.1294    0.7941   -1.2501 C   0  0  0  0  0  0  0  0  0  0  0  0
    4.7905    0.6858   -2.6043 C   0  0  0  0  0  0  0  0  0  0  0  0
    2.7574    1.0566   -1.1577 C   0  0  0  0  0  0  0  0  0  0  0  0
    0.2571    1.4895    1.1747 H   0  0  0  0  0  0  0  0  0  0  0  0
    0.0419    0.6676   -0.3892 H   0  0  0  0  0  0  0  0  0  0  0  0
    0.3757    2.4067   -0.3460 H   0  0  0  0  0  0  0  0  0  0  0  0
    2.3694    1.0706    2.2141 H   0  0  0  0  0  0  0  0  0  0  0  0
    4.3500    0.6257    3.3576 H   0  0  0  0  0  0  0  0  0  0  0  0
    5.7988    1.3204    2.5903 H   0  0  0  0  0  0  0  0  0  0  0  0
    5.5204   -0.4216    2.5170 H   0  0  0  0  0  0  0  0  0  0  0  0
    4.9946   -2.3215   -0.2084 H   0  0  0  0  0  0  0  0  0  0  0  0
    5.6756   -4.9470   -0.4092 H   0  0  0  0  0  0  0  0  0  0  0  0
    8.7059   -5.4992   -0.6067 H   0  0  0  0  0  0  0  0  0  0  0  0
    5.6279   -8.9992    1.4783 H   0  0  0  0  0  0  0  0  0  0  0  0
    6.9271   -9.7057    0.4744 H   0  0  0  0  0  0  0  0  0  0  0  0
    5.3186  -10.4834    0.5401 H   0  0  0  0  0  0  0  0  0  0  0  0
    3.6265   -7.8980    0.3873 H   0  0  0  0  0  0  0  0  0  0  0  0
    3.3046   -9.3538   -0.5967 H   0  0  0  0  0  0  0  0  0  0  0  0
    3.5312   -7.7690   -1.3894 H   0  0  0  0  0  0  0  0  0  0  0  0
    6.7898   -9.5196   -2.0865 H   0  0  0  0  0  0  0  0  0  0  0  0
    5.3962   -8.6869   -2.8343 H   0  0  0  0  0  0  0  0  0  0  0  0
    5.1780  -10.2930   -2.0915 H   0  0  0  0  0  0  0  0  0  0  0  0
    9.2838   -3.0662   -0.4512 H   0  0  0  0  0  0  0  0  0  0  0  0
    6.0294    3.2309   -0.1063 H   0  0  0  0  0  0  0  0  0  0  0  0
    8.4045    4.4911   -0.2403 H   0  0  0  0  0  0  0  0  0  0  0  0
   10.8014    4.6357    0.4880 H   0  0  0  0  0  0  0  0  0  0  0  0
   10.5297    4.5735   -1.2711 H   0  0  0  0  0  0  0  0  0  0  0  0
   13.0894    4.8264   -0.2887 H   0  0  0  0  0  0  0  0  0  0  0  0
   12.7671    3.8139   -1.7145 H   0  0  0  0  0  0  0  0  0  0  0  0
   12.9462    2.8593    1.2046 H   0  0  0  0  0  0  0  0  0  0  0  0
   13.8483    2.2103   -0.1836 H   0  0  0  0  0  0  0  0  0  0  0  0
   11.5087    0.9946    0.5956 H   0  0  0  0  0  0  0  0  0  0  0  0
   11.8409    1.1903   -1.1311 H   0  0  0  0  0  0  0  0  0  0  0  0
    5.2845   -0.2901   -2.7350 H   0  0  0  0  0  0  0  0  0  0  0  0
    5.5711    1.4523   -2.7364 H   0  0  0  0  0  0  0  0  0  0  0  0
    4.0562    0.8071   -3.4137 H   0  0  0  0  0  0  0  0  0  0  0  0
    2.1829    1.1798   -2.0811 H   0  0  0  0  0  0  0  0  0  0  0  0
  1  2  1  0
  1 38  1  0
  1 39  1  0
  1 40  1  0
  2  3  2  0
  2 37  1  0
  3  4  1  0
  3 41  1  0
  4  5  1  0
  4  6  2  0
  5 42  1  0
  5 43  1  0
  5 44  1  0
  6  7  1  0
  6 35  1  0
  7  8  1  0
  7 26  2  0
  8  9  2  0
  8 21  1  0
  9 10  1  0
  9 45  1  0
 10 11  1  0
 10 20  2  0
 11 12  2  0
 11 46  1  0
 12 13  1  0
 12 47  1  0
 13 14  2  0
 13 15  1  0
 16 15  1  6
 16 17  1  0
 16 18  1  0
 16 19  1  0
 17 48  1  0
 17 49  1  0
 17 50  1  0
 18 51  1  0
 18 52  1  0
 18 53  1  0
 19 54  1  0
 19 55  1  0
 19 56  1  0
 20 21  1  0
 20 57  1  0
 21 22  1  0
 22 23  1  1
 22 24  1  0
 22 25  1  0
 25 26  1  0
 25 29  1  0
 26 27  1  0
 27 28  2  0
 27 58  1  0
 28 29  1  0
 28 59  1  0
 29 30  2  0
 30 31  1  0
 30 34  1  0
 31 32  1  0
 31 60  1  0
 31 61  1  0
 32 33  1  0
 32 62  1  0
 32 63  1  0
 33 34  1  0
 33 64  1  0
 33 65  1  0
 34 66  1  0
 34 67  1  0
 35 36  1  0
 35 37  2  0
 36 68  1  0
 36 69  1  0
 36 70  1  0
 37 71  1  0
M  CHG  2  22  -1  30   1
M  END

