
     RDKit          3D

 48 49  0  0  0  0  0  0  0  0999 V2000
    1.5198    0.3654    3.9356 C   0  0  0  0  0  0  0  0  0  0  0  0
    2.9257    0.5354    3.3921 C   0  0  0  0  0  0  0  0  0  0  0  0
    3.4725   -0.7540    3.1737 O   0  0  0  0  0  0  0  0  0  0  0  0
    4.7340   -0.8760    2.6824 C   0  0  0  0  0  0  0  0  0  0  0  0
    5.5772    0.2011    2.3627 C   0  0  0  0  0  0  0  0  0  0  0  0
    6.8587   -0.0371    1.8615 C   0  0  0  0  0  0  0  0  0  0  0  0
    7.3266   -1.3420    1.6712 C   0  0  0  0  0  0  0  0  0  0  0  0
    8.6073   -1.4596    1.1902 O   0  0  0  0  0  0  0  0  0  0  0  0
    9.1809   -2.7300    0.9179 C   0  0  1  0  0  0  0  0  0  0  0  0
    8.7669   -3.2824   -0.4444 C   0  0  0  0  0  0  0  0  0  0  0  0
   10.7041   -2.5951    1.0009 C   0  0  0  0  0  0  0  0  0  0  0  0
   11.4576   -3.5264    0.7475 O   0  0  0  0  0  0  0  0  0  0  0  0
   11.1570   -1.3814    1.3854 N   0  0  0  0  0  0  0  0  0  0  0  0
   12.5129   -1.1798    1.4956 N   0  0  0  0  0  0  0  0  0  0  0  0
   12.9722    0.0418    1.8899 C   0  0  0  0  0  0  0  0  0  0  0  0
   12.1897    0.9412    2.1769 O   0  0  0  0  0  0  0  0  0  0  0  0
   14.4649    0.1870    1.8803 C   0  0  0  0  0  0  0  0  0  0  0  0
   15.1552   -0.2638    0.7356 C   0  0  0  0  0  0  0  0  0  0  0  0
   16.5153   -0.0269    0.5707 C   0  0  0  0  0  0  0  0  0  0  0  0
   17.3302   -0.5843   -0.8732 Cl  0  0  0  0  0  0  0  0  0  0  0  0
   17.2270    0.6744    1.5511 C   0  0  0  0  0  0  0  0  0  0  0  0
   16.5645    1.1041    2.6929 C   0  0  0  0  0  0  0  0  0  0  0  0
   15.1900    0.8655    2.8913 C   0  0  0  0  0  0  0  0  0  0  0  0
   14.7115    1.3242    4.0665 O   0  0  0  0  0  0  0  0  0  0  0  0
   13.6121    0.7314    4.7405 C   0  0  0  0  0  0  0  0  0  0  0  0
    6.4851   -2.4202    1.9856 C   0  0  0  0  0  0  0  0  0  0  0  0
    5.2049   -2.1826    2.4865 C   0  0  0  0  0  0  0  0  0  0  0  0
    1.0595    1.3490    4.1173 H   0  0  0  0  0  0  0  0  0  0  0  0
    1.5347   -0.1935    4.8838 H   0  0  0  0  0  0  0  0  0  0  0  0
    0.8914   -0.1874    3.2207 H   0  0  0  0  0  0  0  0  0  0  0  0
    3.5555    1.0992    4.1070 H   0  0  0  0  0  0  0  0  0  0  0  0
    2.9118    1.1078    2.4446 H   0  0  0  0  0  0  0  0  0  0  0  0
    5.2500    1.2319    2.4987 H   0  0  0  0  0  0  0  0  0  0  0  0
    7.5172    0.7975    1.6114 H   0  0  0  0  0  0  0  0  0  0  0  0
    8.9111   -3.4488    1.7135 H   0  0  0  0  0  0  0  0  0  0  0  0
    9.0148   -2.5568   -1.2341 H   0  0  0  0  0  0  0  0  0  0  0  0
    7.6862   -3.4801   -0.4793 H   0  0  0  0  0  0  0  0  0  0  0  0
    9.3117   -4.2169   -0.6385 H   0  0  0  0  0  0  0  0  0  0  0  0
   10.5679   -0.5807    1.5974 H   0  0  0  0  0  0  0  0  0  0  0  0
   13.0693   -2.0095    1.3060 H   0  0  0  0  0  0  0  0  0  0  0  0
   14.6051   -0.7664   -0.0614 H   0  0  0  0  0  0  0  0  0  0  0  0
   18.2928    0.8680    1.4197 H   0  0  0  0  0  0  0  0  0  0  0  0
   17.0997    1.6307    3.4853 H   0  0  0  0  0  0  0  0  0  0  0  0
   13.7486    0.9588    5.8073 H   0  0  0  0  0  0  0  0  0  0  0  0
   13.6084   -0.3648    4.6081 H   0  0  0  0  0  0  0  0  0  0  0  0
   12.6560    1.1395    4.3859 H   0  0  0  0  0  0  0  0  0  0  0  0
    6.8081   -3.4518    1.8438 H   0  0  0  0  0  0  0  0  0  0  0  0
    4.5422   -3.0146    2.7330 H   0  0  0  0  0  0  0  0  0  0  0  0
  1  2  1  0
  1 28  1  0
  1 29  1  0
  1 30  1  0
  2  3  1  0
  2 31  1  0
  2 32  1  0
  3  4  1  0
  4  5  2  0
  4 27  1  0
  5  6  1  0
  5 33  1  0
  6  7  2  0
  6 34  1  0
  7  8  1  0
  7 26  1  0
  8  9  1  0
  9 10  1  0
  9 11  1  0
  9 35  1  1
 10 36  1  0
 10 37  1  0
 10 38  1  0
 11 12  2  0
 11 13  1  0
 13 14  1  0
 13 39  1  0
 14 15  1  0
 14 40  1  0
 15 16  2  0
 15 17  1  0
 17 18  2  0
 17 23  1  0
 18 19  1  0
 18 41  1  0
 19 20  1  0
 19 21  2  0
 21 22  1  0
 21 42  1  0
 22 23  2  0
 22 43  1  0
 23 24  1  0
 24 25  1  0
 25 44  1  0
 25 45  1  0
 25 46  1  0
 26 27  2  0
 26 47  1  0
 27 48  1  0
M  END

