
     RDKit          3D

 43 44  0  0  0  0  0  0  0  0999 V2000
    2.4157   -0.4641    0.9762 C   0  0  0  0  0  0  0  0  0  0  0  0
    2.1351    0.7054    0.2422 O   0  0  0  0  0  0  0  0  0  0  0  0
    2.6635    0.8378   -0.9983 C   0  0  0  0  0  0  0  0  0  0  0  0
    3.4824   -0.0904   -1.6511 C   0  0  0  0  0  0  0  0  0  0  0  0
    3.9793    0.1434   -2.9401 C   0  0  0  0  0  0  0  0  0  0  0  0
    3.6605    1.3317   -3.6111 C   0  0  0  0  0  0  0  0  0  0  0  0
    4.1157    1.6470   -4.9078 N   0  0  0  0  0  0  0  0  0  0  0  0
    4.9352    0.9211   -5.7402 C   0  0  0  0  0  0  0  0  0  0  0  0
    5.3791   -0.1817   -5.4624 O   0  0  0  0  0  0  0  0  0  0  0  0
    5.2824    1.6404   -7.0413 C   0  0  0  0  0  0  0  0  0  0  0  0
    5.6862    0.6679   -8.1516 C   0  0  1  0  0  0  0  0  0  0  0  0
    4.4670   -0.1177   -8.6983 C   0  0  0  0  0  0  0  0  0  0  0  0
    4.7991   -1.4837   -9.3080 C   0  0  0  0  0  0  0  0  0  0  0  0
    5.7487   -1.4592  -10.5097 C   0  0  0  0  0  0  0  0  0  0  0  0
    7.0902   -0.7672  -10.2323 C   0  0  0  0  0  0  0  0  0  0  0  0
    7.0335    0.6944  -10.2350 N   0  0  0  0  0  0  0  0  0  0  0  0
    7.6589    1.3821  -11.3545 C   0  0  0  0  0  0  0  0  0  0  0  0
    6.4098    1.4389   -9.2645 C   0  0  0  0  0  0  0  0  0  0  0  0
    6.3992    2.6636   -9.2894 O   0  0  0  0  0  0  0  0  0  0  0  0
    2.8364    2.2745   -2.9646 C   0  0  0  0  0  0  0  0  0  0  0  0
    2.3550    2.0253   -1.6910 C   0  0  0  0  0  0  0  0  0  0  0  0
    1.5739    2.9341   -1.0947 F   0  0  0  0  0  0  0  0  0  0  0  0
    1.8953   -0.3621    1.9379 H   0  0  0  0  0  0  0  0  0  0  0  0
    3.4983   -0.5814    1.1658 H   0  0  0  0  0  0  0  0  0  0  0  0
    2.0457   -1.3708    0.4635 H   0  0  0  0  0  0  0  0  0  0  0  0
    3.7487   -1.0244   -1.1555 H   0  0  0  0  0  0  0  0  0  0  0  0
    4.6135   -0.5911   -3.4293 H   0  0  0  0  0  0  0  0  0  0  0  0
    3.8121    2.5458   -5.2633 H   0  0  0  0  0  0  0  0  0  0  0  0
    6.1192    2.3278   -6.8333 H   0  0  0  0  0  0  0  0  0  0  0  0
    4.4539    2.2860   -7.3759 H   0  0  0  0  0  0  0  0  0  0  0  0
    6.3782   -0.0601   -7.6963 H   0  0  0  0  0  0  0  0  0  0  0  0
    3.9272    0.5126   -9.4283 H   0  0  0  0  0  0  0  0  0  0  0  0
    3.7682   -0.2882   -7.8636 H   0  0  0  0  0  0  0  0  0  0  0  0
    3.8601   -1.9836   -9.6009 H   0  0  0  0  0  0  0  0  0  0  0  0
    5.2443   -2.1131   -8.5160 H   0  0  0  0  0  0  0  0  0  0  0  0
    5.2695   -0.9615  -11.3717 H   0  0  0  0  0  0  0  0  0  0  0  0
    5.9515   -2.4981  -10.8223 H   0  0  0  0  0  0  0  0  0  0  0  0
    7.8157   -1.0525  -11.0078 H   0  0  0  0  0  0  0  0  0  0  0  0
    7.5087   -1.1325   -9.2776 H   0  0  0  0  0  0  0  0  0  0  0  0
    8.7437    1.1781  -11.3888 H   0  0  0  0  0  0  0  0  0  0  0  0
    7.5022    2.4595  -11.2295 H   0  0  0  0  0  0  0  0  0  0  0  0
    7.2176    1.0603  -12.3141 H   0  0  0  0  0  0  0  0  0  0  0  0
    2.5581    3.2168   -3.4431 H   0  0  0  0  0  0  0  0  0  0  0  0
  1  2  1  0
  1 23  1  0
  1 24  1  0
  1 25  1  0
  2  3  1  0
  3  4  2  0
  3 21  1  0
  4  5  1  0
  4 26  1  0
  5  6  2  0
  5 27  1  0
  6  7  1  0
  6 20  1  0
  7  8  1  0
  7 28  1  0
  8  9  2  0
  8 10  1  0
 10 11  1  0
 10 29  1  0
 10 30  1  0
 11 12  1  0
 11 18  1  0
 11 31  1  1
 12 13  1  0
 12 32  1  0
 12 33  1  0
 13 14  1  0
 13 34  1  0
 13 35  1  0
 14 15  1  0
 14 36  1  0
 14 37  1  0
 15 16  1  0
 15 38  1  0
 15 39  1  0
 16 17  1  0
 16 18  1  0
 17 40  1  0
 17 41  1  0
 17 42  1  0
 18 19  2  0
 20 21  2  0
 20 43  1  0
 21 22  1  0
M  END

