
     RDKit          3D

 38 38  0  0  0  0  0  0  0  0999 V2000
    2.2602    0.7500   -0.7675 C   0  0  0  0  0  0  0  0  0  0  0  0
    2.8377    0.1573    0.5053 C   0  0  0  0  0  0  0  0  0  0  0  0
    2.7682    0.7588    1.5603 O   0  0  0  0  0  0  0  0  0  0  0  0
    3.4982   -1.1892    0.4382 C   0  0  0  0  0  0  0  0  0  0  0  0
    3.6145   -1.9374   -0.7442 C   0  0  0  0  0  0  0  0  0  0  0  0
    4.2368   -3.1857   -0.7610 C   0  0  0  0  0  0  0  0  0  0  0  0
    4.7623   -3.7118    0.4327 C   0  0  0  0  0  0  0  0  0  0  0  0
    5.4053   -4.9553    0.5085 N   0  0  0  0  0  0  0  0  0  0  0  0
    5.6390   -5.8668   -0.4718 C   0  0  0  0  0  0  0  0  0  0  0  0
    5.3151   -5.7600   -1.6426 O   0  0  0  0  0  0  0  0  0  0  0  0
    6.3888   -7.0905    0.1494 C   0  0  0  0  0  0  0  0  0  0  0  0
    6.5957   -7.0787    1.3521 O   0  0  0  0  0  0  0  0  0  0  0  0
    6.7924   -8.1555   -0.6352 N   0  0  0  0  0  0  0  0  0  0  0  0
    6.6812   -8.2375   -2.0444 C   0  0  0  0  0  0  0  0  0  0  0  0
    7.0726   -9.1990   -2.6579 O   0  0  0  0  0  0  0  0  0  0  0  0
    7.4470   -9.2829    0.0680 C   0  0  0  0  0  0  0  0  0  0  0  0
    6.4664  -10.2503    0.7361 C   0  0  0  0  0  0  0  0  0  0  0  0
    5.5466  -11.0132   -0.2191 C   0  0  0  0  0  0  0  0  0  0  0  0
    4.6493  -11.8827    0.5349 N   0  0  0  0  0  0  0  0  0  0  0  0
    4.6502   -2.9685    1.6258 C   0  0  0  0  0  0  0  0  0  0  0  0
    4.0281   -1.7288    1.6246 C   0  0  0  0  0  0  0  0  0  0  0  0
    1.8223    1.7283   -0.5330 H   0  0  0  0  0  0  0  0  0  0  0  0
    1.4832    0.0940   -1.1925 H   0  0  0  0  0  0  0  0  0  0  0  0
    3.0399    0.8731   -1.5366 H   0  0  0  0  0  0  0  0  0  0  0  0
    3.2143   -1.5497   -1.6830 H   0  0  0  0  0  0  0  0  0  0  0  0
    4.3195   -3.7563   -1.6828 H   0  0  0  0  0  0  0  0  0  0  0  0
    5.7469   -5.2582    1.4211 H   0  0  0  0  0  0  0  0  0  0  0  0
    6.2107   -7.3497   -2.4982 H   0  0  0  0  0  0  0  0  0  0  0  0
    8.1107   -8.8487    0.8265 H   0  0  0  0  0  0  0  0  0  0  0  0
    8.0511   -9.8002   -0.6875 H   0  0  0  0  0  0  0  0  0  0  0  0
    5.8533   -9.7188    1.4809 H   0  0  0  0  0  0  0  0  0  0  0  0
    7.0748  -10.9764    1.3062 H   0  0  0  0  0  0  0  0  0  0  0  0
    6.1651  -11.5335   -0.9815 H   0  0  0  0  0  0  0  0  0  0  0  0
    4.9242  -10.2941   -0.7794 H   0  0  0  0  0  0  0  0  0  0  0  0
    5.1766  -12.6405    0.9718 H   0  0  0  0  0  0  0  0  0  0  0  0
    3.9801  -12.3317   -0.0902 H   0  0  0  0  0  0  0  0  0  0  0  0
    5.0578   -3.3765    2.5551 H   0  0  0  0  0  0  0  0  0  0  0  0
    3.9354   -1.1446    2.5421 H   0  0  0  0  0  0  0  0  0  0  0  0
  1  2  1  0
  1 22  1  0
  1 23  1  0
  1 24  1  0
  2  3  2  0
  2  4  1  0
  4  5  2  0
  4 21  1  0
  5  6  1  0
  5 25  1  0
  6  7  2  0
  6 26  1  0
  7  8  1  0
  7 20  1  0
  8  9  1  0
  8 27  1  0
  9 10  2  0
  9 11  1  0
 11 12  2  0
 11 13  1  0
 13 14  1  0
 13 16  1  0
 14 15  2  0
 14 28  1  0
 16 17  1  0
 16 29  1  0
 16 30  1  0
 17 18  1  0
 17 31  1  0
 17 32  1  0
 18 19  1  0
 18 33  1  0
 18 34  1  0
 19 35  1  0
 19 36  1  0
 20 21  2  0
 20 37  1  0
 21 38  1  0
M  END

