
     RDKit          3D

 49 48  0  0  0  0  0  0  0  0999 V2000
    4.9839   -7.3098    0.4707 C   0  0  0  0  0  0  0  0  0  0  0  0
    4.6274   -5.8412    0.6996 C   0  0  0  0  0  0  0  0  0  0  0  0
    5.0873   -4.9239   -0.4345 C   0  0  0  0  0  0  0  0  0  0  0  0
    4.6899   -3.5427   -0.1764 N   0  0  0  0  0  0  0  0  0  0  0  0
    5.1452   -2.4918   -1.1091 C   0  0  1  0  0  0  0  0  0  0  0  0
    6.6674   -2.2520   -1.0400 C   0  0  0  0  0  0  0  0  0  0  0  0
    4.7431   -2.8062   -2.5739 C   0  0  0  0  0  0  0  0  0  0  0  0
    3.2409   -3.0559   -2.8223 C   0  0  0  0  0  0  0  0  0  0  0  0
    2.8143   -3.0727   -4.2215 N   0  0  0  0  0  0  0  0  0  0  0  0
    2.9228   -1.7661   -4.8515 C   0  0  0  0  0  0  0  0  0  0  0  0
    3.2727   -4.1889   -5.0645 C   0  0  1  0  0  0  0  0  0  0  0  0
    3.2144   -5.5270   -4.3174 C   0  0  0  0  0  0  0  0  0  0  0  0
    2.4689   -4.2423   -6.4002 C   0  0  1  0  0  0  0  0  0  0  0  0
    3.0536   -5.2538   -7.3954 C   0  0  0  0  0  0  0  0  0  0  0  0
    0.9669   -4.4629   -6.1849 C   0  0  0  0  0  0  0  0  0  0  0  0
    4.4462   -1.1509   -0.7347 C   0  0  0  0  0  0  0  0  0  0  0  0
    3.4050   -1.2614    0.1315 N   0  0  0  0  0  0  0  0  0  0  0  0
    4.8165   -0.0905   -1.2092 O   0  0  0  0  0  0  0  0  0  0  0  0
    4.6428   -7.9397    1.3070 H   0  0  0  0  0  0  0  0  0  0  0  0
    6.0732   -7.4508    0.3719 H   0  0  0  0  0  0  0  0  0  0  0  0
    4.5158   -7.6981   -0.4492 H   0  0  0  0  0  0  0  0  0  0  0  0
    5.0804   -5.4959    1.6480 H   0  0  0  0  0  0  0  0  0  0  0  0
    3.5368   -5.7263    0.8228 H   0  0  0  0  0  0  0  0  0  0  0  0
    4.6230   -5.2628   -1.3746 H   0  0  0  0  0  0  0  0  0  0  0  0
    6.1836   -5.0434   -0.5715 H   0  0  0  0  0  0  0  0  0  0  0  0
    5.0160   -3.2912    0.7584 H   0  0  0  0  0  0  0  0  0  0  0  0
    7.2227   -3.1309   -1.4019 H   0  0  0  0  0  0  0  0  0  0  0  0
    6.9837   -2.0456   -0.0037 H   0  0  0  0  0  0  0  0  0  0  0  0
    6.9441   -1.3829   -1.6516 H   0  0  0  0  0  0  0  0  0  0  0  0
    5.3394   -3.6622   -2.9319 H   0  0  0  0  0  0  0  0  0  0  0  0
    5.0676   -1.9373   -3.1663 H   0  0  0  0  0  0  0  0  0  0  0  0
    2.6608   -2.2622   -2.3250 H   0  0  0  0  0  0  0  0  0  0  0  0
    2.9282   -3.9887   -2.3333 H   0  0  0  0  0  0  0  0  0  0  0  0
    2.7152   -0.9823   -4.1079 H   0  0  0  0  0  0  0  0  0  0  0  0
    2.1880   -1.6420   -5.6620 H   0  0  0  0  0  0  0  0  0  0  0  0
    3.9271   -1.5539   -5.2820 H   0  0  0  0  0  0  0  0  0  0  0  0
    4.3361   -4.0265   -5.3659 H   0  0  0  0  0  0  0  0  0  0  0  0
    2.2157   -5.7062   -3.8903 H   0  0  0  0  0  0  0  0  0  0  0  0
    3.9469   -5.5776   -3.4996 H   0  0  0  0  0  0  0  0  0  0  0  0
    3.4482   -6.3562   -4.9995 H   0  0  0  0  0  0  0  0  0  0  0  0
    2.5921   -3.2544   -6.8726 H   0  0  0  0  0  0  0  0  0  0  0  0
    2.8838   -6.2969   -7.0819 H   0  0  0  0  0  0  0  0  0  0  0  0
    4.1398   -5.1144   -7.5261 H   0  0  0  0  0  0  0  0  0  0  0  0
    2.5832   -5.1355   -8.3848 H   0  0  0  0  0  0  0  0  0  0  0  0
    0.7544   -5.4826   -5.8228 H   0  0  0  0  0  0  0  0  0  0  0  0
    0.4114   -4.3300   -7.1276 H   0  0  0  0  0  0  0  0  0  0  0  0
    0.5693   -3.7553   -5.4421 H   0  0  0  0  0  0  0  0  0  0  0  0
    3.0772   -2.1886    0.3801 H   0  0  0  0  0  0  0  0  0  0  0  0
    2.8608   -0.4333    0.3417 H   0  0  0  0  0  0  0  0  0  0  0  0
  1  2  1  0
  1 19  1  0
  1 20  1  0
  1 21  1  0
  2  3  1  0
  2 22  1  0
  2 23  1  0
  3  4  1  0
  3 24  1  0
  3 25  1  0
  4  5  1  0
  4 26  1  0
  5  6  1  0
  5  7  1  0
  5 16  1  1
  6 27  1  0
  6 28  1  0
  6 29  1  0
  7  8  1  0
  7 30  1  0
  7 31  1  0
  8  9  1  0
  8 32  1  0
  8 33  1  0
  9 10  1  0
  9 11  1  0
 10 34  1  0
 10 35  1  0
 10 36  1  0
 11 12  1  0
 11 13  1  0
 11 37  1  6
 12 38  1  0
 12 39  1  0
 12 40  1  0
 13 14  1  0
 13 15  1  0
 13 41  1  6
 14 42  1  0
 14 43  1  0
 14 44  1  0
 15 45  1  0
 15 46  1  0
 15 47  1  0
 16 17  1  0
 16 18  2  0
 17 48  1  0
 17 49  1  0
M  END

