
     RDKit          3D

 49 49  0  0  0  0  0  0  0  0999 V2000
    2.8895    1.4367    2.9530 C   0  0  0  0  0  0  0  0  0  0  0  0
    2.4233    0.8932    1.5929 C   0  0  1  0  0  0  0  0  0  0  0  0
    1.0269    1.2163    1.2815 N   0  0  0  0  0  0  0  0  0  0  0  0
    3.2875    1.3818    0.4188 C   0  0  0  0  0  0  0  0  0  0  0  0
    4.7896    1.0354    0.4590 C   0  0  1  0  0  0  0  0  0  0  0  0
    5.0855   -0.4846    0.4631 C   0  0  0  0  0  0  0  0  0  0  0  0
    4.8104   -1.1313   -0.9017 C   0  0  0  0  0  0  0  0  0  0  0  0
    5.5609   -0.3817   -2.0100 C   0  0  0  0  0  0  0  0  0  0  0  0
    5.2562    1.1256   -1.9481 C   0  0  0  0  0  0  0  0  0  0  0  0
    5.4975    1.7263   -0.6347 N   0  0  0  0  0  0  0  0  0  0  0  0
    6.8946    2.0662   -0.3762 C   0  0  0  0  0  0  0  0  0  0  0  0
    7.3469    3.3728   -1.0494 C   0  0  0  0  0  0  0  0  0  0  0  0
    6.5947    4.6053   -0.5390 C   0  0  0  0  0  0  0  0  0  0  0  0
    6.9068    5.9678   -1.2123 C   0  0  1  0  0  0  0  0  0  0  0  0
    6.5271    5.9430   -2.7056 C   0  0  0  0  0  0  0  0  0  0  0  0
    6.0631    7.0472   -0.5065 C   0  0  0  0  0  0  0  0  0  0  0  0
    8.3977    6.3283   -1.0673 C   0  0  0  0  0  0  0  0  0  0  0  0
    2.2137    1.1008    3.7571 H   0  0  0  0  0  0  0  0  0  0  0  0
    2.8889    2.5410    2.9525 H   0  0  0  0  0  0  0  0  0  0  0  0
    3.9055    1.1017    3.2191 H   0  0  0  0  0  0  0  0  0  0  0  0
    2.4796   -0.2101    1.6317 H   0  0  0  0  0  0  0  0  0  0  0  0
    0.9099    2.2314    1.2418 H   0  0  0  0  0  0  0  0  0  0  0  0
    0.4143    0.8945    2.0320 H   0  0  0  0  0  0  0  0  0  0  0  0
    3.2145    2.4829    0.3602 H   0  0  0  0  0  0  0  0  0  0  0  0
    2.8176    0.9983   -0.4997 H   0  0  0  0  0  0  0  0  0  0  0  0
    5.1932    1.4584    1.3926 H   0  0  0  0  0  0  0  0  0  0  0  0
    4.5122   -0.9918    1.2568 H   0  0  0  0  0  0  0  0  0  0  0  0
    6.1508   -0.6281    0.7186 H   0  0  0  0  0  0  0  0  0  0  0  0
    3.7265   -1.1150   -1.1148 H   0  0  0  0  0  0  0  0  0  0  0  0
    5.1025   -2.1949   -0.8851 H   0  0  0  0  0  0  0  0  0  0  0  0
    5.2909   -0.7755   -3.0051 H   0  0  0  0  0  0  0  0  0  0  0  0
    6.6470   -0.5482   -1.8939 H   0  0  0  0  0  0  0  0  0  0  0  0
    4.2004    1.2889   -2.2278 H   0  0  0  0  0  0  0  0  0  0  0  0
    5.8505    1.6688   -2.6991 H   0  0  0  0  0  0  0  0  0  0  0  0
    7.5964    1.2566   -0.6742 H   0  0  0  0  0  0  0  0  0  0  0  0
    7.0156    2.1798    0.7143 H   0  0  0  0  0  0  0  0  0  0  0  0
    7.2301    3.2771   -2.1423 H   0  0  0  0  0  0  0  0  0  0  0  0
    8.4313    3.4783   -0.8727 H   0  0  0  0  0  0  0  0  0  0  0  0
    6.7883    4.7069    0.5457 H   0  0  0  0  0  0  0  0  0  0  0  0
    5.5141    4.4049   -0.6337 H   0  0  0  0  0  0  0  0  0  0  0  0
    5.4671    5.6717   -2.8423 H   0  0  0  0  0  0  0  0  0  0  0  0
    7.1346    5.2216   -3.2745 H   0  0  0  0  0  0  0  0  0  0  0  0
    6.6809    6.9337   -3.1648 H   0  0  0  0  0  0  0  0  0  0  0  0
    4.9860    6.8256   -0.5871 H   0  0  0  0  0  0  0  0  0  0  0  0
    6.2357    8.0422   -0.9494 H   0  0  0  0  0  0  0  0  0  0  0  0
    6.3116    7.1099    0.5660 H   0  0  0  0  0  0  0  0  0  0  0  0
    9.0471    5.6168   -1.6018 H   0  0  0  0  0  0  0  0  0  0  0  0
    8.7056    6.3342   -0.0081 H   0  0  0  0  0  0  0  0  0  0  0  0
    8.6011    7.3309   -1.4789 H   0  0  0  0  0  0  0  0  0  0  0  0
  1  2  1  0
  1 18  1  0
  1 19  1  0
  1 20  1  0
  2  3  1  0
  2  4  1  0
  2 21  1  1
  3 22  1  0
  3 23  1  0
  4  5  1  0
  4 24  1  0
  4 25  1  0
  5  6  1  0
  5 10  1  0
  5 26  1  1
  6  7  1  0
  6 27  1  0
  6 28  1  0
  7  8  1  0
  7 29  1  0
  7 30  1  0
  8  9  1  0
  8 31  1  0
  8 32  1  0
  9 10  1  0
  9 33  1  0
  9 34  1  0
 10 11  1  0
 11 12  1  0
 11 35  1  0
 11 36  1  0
 12 13  1  0
 12 37  1  0
 12 38  1  0
 14 13  1  1
 13 39  1  0
 13 40  1  0
 14 15  1  0
 14 16  1  0
 14 17  1  0
 15 41  1  0
 15 42  1  0
 15 43  1  0
 16 44  1  0
 16 45  1  0
 16 46  1  0
 17 47  1  0
 17 48  1  0
 17 49  1  0
M  END

