
     RDKit          3D

 65 69  0  0  0  0  0  0  0  0999 V2000
    5.7725   -1.5505  -13.3215 C   0  0  0  0  0  0  0  0  0  0  0  0
    6.0506   -0.6977  -12.0906 C   0  0  0  0  0  0  0  0  0  0  0  0
    6.2294    0.5057  -12.1877 O   0  0  0  0  0  0  0  0  0  0  0  0
    6.0872   -1.3391  -10.8703 N   0  0  0  0  0  0  0  0  0  0  0  0
    6.3921   -0.5827   -9.6641 C   0  0  0  0  0  0  0  0  0  0  0  0
    5.3641   -0.8556   -8.5653 C   0  0  0  0  0  0  0  0  0  0  0  0
    5.2358   -2.2862   -8.3214 N   0  0  0  0  0  0  0  0  0  0  0  0
    4.6909   -2.7245   -7.0982 C   0  0  0  0  0  0  0  0  0  0  0  0
    4.0977   -1.8359   -6.1776 C   0  0  0  0  0  0  0  0  0  0  0  0
    3.6074   -2.3188   -4.9625 C   0  0  0  0  0  0  0  0  0  0  0  0
    3.6646   -3.6677   -4.6168 C   0  0  0  0  0  0  0  0  0  0  0  0
    4.2489   -4.5677   -5.5281 C   0  0  0  0  0  0  0  0  0  0  0  0
    4.3848   -5.9470   -5.3065 N   0  0  0  0  0  0  0  0  0  0  0  0
    4.0242   -6.7801   -4.2789 C   0  0  0  0  0  0  0  0  0  0  0  0
    3.3837   -6.2651   -3.1913 N   0  0  0  0  0  0  0  0  0  0  0  0
    3.0451   -7.1167   -2.2544 C   0  0  0  0  0  0  0  0  0  0  0  0
    3.3102   -8.5105   -2.3223 C   0  0  0  0  0  0  0  0  0  0  0  0
    2.9235   -9.4323   -1.3185 C   0  0  0  0  0  0  0  0  0  0  0  0
    3.2144  -10.7699   -1.4799 C   0  0  0  0  0  0  0  0  0  0  0  0
    3.8996  -11.2102   -2.6390 C   0  0  0  0  0  0  0  0  0  0  0  0
    4.3080  -10.3463   -3.6482 C   0  0  0  0  0  0  0  0  0  0  0  0
    5.0117  -10.8701   -4.8492 C   0  0  0  0  0  0  0  0  0  0  0  0
    4.5393  -12.0236   -5.5006 C   0  0  0  0  0  0  0  0  0  0  0  0
    5.2055  -12.5544   -6.6061 C   0  0  0  0  0  0  0  0  0  0  0  0
    6.3589  -11.9343   -7.1004 C   0  0  0  0  0  0  0  0  0  0  0  0
    7.0279  -12.4913   -8.2348 N   0  0  0  0  0  0  0  0  0  0  0  0
    6.6577  -11.9091   -9.8054 S   0  0  1  0  0  0  0  0  0  0  0  0
    5.4181  -13.0788  -10.3701 C   0  0  0  0  0  0  0  0  0  0  0  0
    6.0203  -10.5941   -9.7315 O   0  0  0  0  0  0  0  0  0  0  0  0
    7.8839  -12.1226  -10.5761 O   0  0  0  0  0  0  0  0  0  0  0  0
    6.8385  -10.7819   -6.4610 C   0  0  0  0  0  0  0  0  0  0  0  0
    6.1785  -10.2611   -5.3510 C   0  0  0  0  0  0  0  0  0  0  0  0
    4.0035   -8.9454   -3.4990 C   0  0  0  0  0  0  0  0  0  0  0  0
    4.3448   -8.0572   -4.4552 N   0  0  0  0  0  0  0  0  0  0  0  0
    4.7568   -4.0862   -6.7469 C   0  0  0  0  0  0  0  0  0  0  0  0
    4.9119   -3.0283   -9.5364 C   0  0  0  0  0  0  0  0  0  0  0  0
    5.9412   -2.7661  -10.6381 C   0  0  0  0  0  0  0  0  0  0  0  0
    5.7837   -0.8814  -14.1900 H   0  0  0  0  0  0  0  0  0  0  0  0
    4.7903   -2.0462  -13.2659 H   0  0  0  0  0  0  0  0  0  0  0  0
    6.5369   -2.3315  -13.4611 H   0  0  0  0  0  0  0  0  0  0  0  0
    6.4075    0.4810   -9.9312 H   0  0  0  0  0  0  0  0  0  0  0  0
    7.3961   -0.8664   -9.2949 H   0  0  0  0  0  0  0  0  0  0  0  0
    4.3915   -0.3983   -8.8505 H   0  0  0  0  0  0  0  0  0  0  0  0
    5.7049   -0.3630   -7.6438 H   0  0  0  0  0  0  0  0  0  0  0  0
    3.9991   -0.7757   -6.4069 H   0  0  0  0  0  0  0  0  0  0  0  0
    3.1486   -1.6155   -4.2620 H   0  0  0  0  0  0  0  0  0  0  0  0
    3.2722   -4.0309   -3.6717 H   0  0  0  0  0  0  0  0  0  0  0  0
    4.8337   -6.4659   -6.0542 H   0  0  0  0  0  0  0  0  0  0  0  0
    2.5261   -6.7103   -1.3755 H   0  0  0  0  0  0  0  0  0  0  0  0
    2.3998   -9.0694   -0.4296 H   0  0  0  0  0  0  0  0  0  0  0  0
    2.9288  -11.4972   -0.7167 H   0  0  0  0  0  0  0  0  0  0  0  0
    4.1358  -12.2730   -2.7341 H   0  0  0  0  0  0  0  0  0  0  0  0
    3.6289  -12.5092   -5.1414 H   0  0  0  0  0  0  0  0  0  0  0  0
    4.8391  -13.4636   -7.0880 H   0  0  0  0  0  0  0  0  0  0  0  0
    8.0469  -12.4808   -8.1781 H   0  0  0  0  0  0  0  0  0  0  0  0
    4.5439  -13.0144   -9.7099 H   0  0  0  0  0  0  0  0  0  0  0  0
    5.8586  -14.0831  -10.3650 H   0  0  0  0  0  0  0  0  0  0  0  0
    5.1509  -12.7690  -11.3896 H   0  0  0  0  0  0  0  0  0  0  0  0
    7.7329  -10.2873   -6.8477 H   0  0  0  0  0  0  0  0  0  0  0  0
    6.5664   -9.3654   -4.8668 H   0  0  0  0  0  0  0  0  0  0  0  0
    5.2446   -4.7924   -7.4225 H   0  0  0  0  0  0  0  0  0  0  0  0
    3.9051   -2.7405   -9.9124 H   0  0  0  0  0  0  0  0  0  0  0  0
    4.8842   -4.1047   -9.3265 H   0  0  0  0  0  0  0  0  0  0  0  0
    5.6254   -3.2760  -11.5558 H   0  0  0  0  0  0  0  0  0  0  0  0
    6.9137   -3.1975  -10.3298 H   0  0  0  0  0  0  0  0  0  0  0  0
  1  2  1  0
  1 38  1  0
  1 39  1  0
  1 40  1  0
  2  3  2  0
  2  4  1  0
  4  5  1  0
  4 37  1  0
  5  6  1  0
  5 41  1  0
  5 42  1  0
  6  7  1  0
  6 43  1  0
  6 44  1  0
  7  8  1  0
  7 36  1  0
  8  9  2  0
  8 35  1  0
  9 10  1  0
  9 45  1  0
 10 11  2  0
 10 46  1  0
 11 12  1  0
 11 47  1  0
 12 13  1  0
 12 35  2  0
 13 14  1  0
 13 48  1  0
 14 15  2  0
 14 34  1  0
 15 16  1  0
 16 17  2  0
 16 49  1  0
 17 18  1  0
 17 33  1  0
 18 19  2  0
 18 50  1  0
 19 20  1  0
 19 51  1  0
 20 21  2  0
 20 52  1  0
 21 22  1  0
 21 33  1  0
 22 23  2  0
 22 32  1  0
 23 24  1  0
 23 53  1  0
 24 25  2  0
 24 54  1  0
 25 26  1  0
 25 31  1  0
 27 26  1  1
 26 55  1  0
 27 28  1  0
 27 29  2  0
 27 30  2  0
 28 56  1  0
 28 57  1  0
 28 58  1  0
 31 32  2  0
 31 59  1  0
 32 60  1  0
 33 34  2  0
 35 61  1  0
 36 37  1  0
 36 62  1  0
 36 63  1  0
 37 64  1  0
 37 65  1  0
M  END

