
     RDKit          3D

 30 30  0  0  0  0  0  0  0  0999 V2000
    1.4260    0.7009    1.0529 C   0  0  0  0  0  0  0  0  0  0  0  0
    2.4993    0.1922    2.0068 C   0  0  1  0  0  0  0  0  0  0  0  0
    1.8862   -0.3406    3.3223 C   0  0  0  0  0  0  0  0  0  0  0  0
    0.7155   -0.5732    3.4590 O   0  0  0  0  0  0  0  0  0  0  0  0
    2.7722   -0.5484    4.3100 O   0  0  0  0  0  0  0  0  0  0  0  0
    3.3607   -0.8859    1.4285 N   0  0  0  0  0  0  0  0  0  0  0  0
    2.9580   -1.5925    0.2130 C   0  0  0  0  0  0  0  0  0  0  0  0
    5.0105   -0.7518    1.6951 S   0  0  1  0  0  0  0  0  0  0  0  0
    5.7335   -0.2556    0.5303 O   0  0  0  0  0  0  0  0  0  0  0  0
    5.1332   -0.0442    2.9878 O   0  0  0  0  0  0  0  0  0  0  0  0
    5.5056   -2.4707    1.9893 C   0  0  0  0  0  0  0  0  0  0  0  0
    4.9775   -3.0745    3.1341 C   0  0  0  0  0  0  0  0  0  0  0  0
    5.3553   -4.3779    3.4611 C   0  0  0  0  0  0  0  0  0  0  0  0
    4.6386   -5.2008    5.0104 Br  0  0  0  0  0  0  0  0  0  0  0  0
    6.2612   -5.0789    2.6561 C   0  0  0  0  0  0  0  0  0  0  0  0
    6.7794   -4.4713    1.5177 C   0  0  0  0  0  0  0  0  0  0  0  0
    6.4145   -3.1564    1.1561 C   0  0  0  0  0  0  0  0  0  0  0  0
    6.9920   -2.6383   -0.0546 C   0  0  0  0  0  0  0  0  0  0  0  0
    7.5136   -2.3647   -1.0543 N   0  0  0  0  0  0  0  0  0  0  0  0
    0.9004    1.5392    1.5320 H   0  0  0  0  0  0  0  0  0  0  0  0
    0.6719   -0.0674    0.8384 H   0  0  0  0  0  0  0  0  0  0  0  0
    1.8679    1.0642    0.1143 H   0  0  0  0  0  0  0  0  0  0  0  0
    3.1558    1.0357    2.2695 H   0  0  0  0  0  0  0  0  0  0  0  0
    3.6724   -0.2672    4.0315 H   0  0  0  0  0  0  0  0  0  0  0  0
    1.9290   -1.9565    0.3333 H   0  0  0  0  0  0  0  0  0  0  0  0
    3.5989   -2.4752    0.0743 H   0  0  0  0  0  0  0  0  0  0  0  0
    3.0253   -0.9710   -0.6945 H   0  0  0  0  0  0  0  0  0  0  0  0
    4.2713   -2.5338    3.7659 H   0  0  0  0  0  0  0  0  0  0  0  0
    6.5565   -6.0958    2.9187 H   0  0  0  0  0  0  0  0  0  0  0  0
    7.4824   -5.0134    0.8828 H   0  0  0  0  0  0  0  0  0  0  0  0
  1  2  1  0
  1 20  1  0
  1 21  1  0
  1 22  1  0
  2  3  1  0
  2  6  1  0
  2 23  1  1
  3  4  2  0
  3  5  1  0
  5 24  1  0
  6  7  1  0
  8  6  1  6
  7 25  1  0
  7 26  1  0
  7 27  1  0
  8  9  2  0
  8 10  2  0
  8 11  1  0
 11 12  2  0
 11 17  1  0
 12 13  1  0
 12 28  1  0
 13 14  1  0
 13 15  2  0
 15 16  1  0
 15 29  1  0
 16 17  2  0
 16 30  1  0
 17 18  1  0
 18 19  3  0
M  END

