
     RDKit          3D

 39 41  0  0  0  0  0  0  0  0999 V2000
    1.3555   -0.2363    0.1425 C   0  0  0  0  0  0  0  0  0  0  0  0
    2.3537    0.5853   -1.1330 S   0  0  0  0  0  0  0  0  0  0  0  0
    2.9165   -0.7586   -2.1493 C   0  0  0  0  0  0  0  0  0  0  0  0
    3.6363   -0.4143   -3.3100 C   0  0  0  0  0  0  0  0  0  0  0  0
    4.0971   -1.4114   -4.1659 C   0  0  0  0  0  0  0  0  0  0  0  0
    3.8515   -2.7608   -3.8927 C   0  0  0  0  0  0  0  0  0  0  0  0
    3.1577   -3.1077   -2.7278 C   0  0  0  0  0  0  0  0  0  0  0  0
    2.8990   -4.4739   -2.4180 N   0  0  0  0  0  0  0  0  0  0  0  0
    3.8427   -5.5163   -2.3424 C   0  0  0  0  0  0  0  0  0  0  0  0
    5.3072   -5.2613   -2.5104 C   0  0  0  0  0  0  0  0  0  0  0  0
    3.1957   -6.7001   -2.0436 C   0  0  0  0  0  0  0  0  0  0  0  0
    3.8195   -8.0532   -1.8614 C   0  0  0  0  0  0  0  0  0  0  0  0
    1.7938   -6.3816   -1.9241 C   0  0  0  0  0  0  0  0  0  0  0  0
    0.5793   -7.0630   -1.6504 C   0  0  0  0  0  0  0  0  0  0  0  0
    0.5156   -8.4093   -1.4312 N   0  0  0  0  0  0  0  0  0  0  0  0
   -0.5746   -6.3888   -1.6250 N   0  0  0  0  0  0  0  0  0  0  0  0
   -0.5730   -5.0639   -1.8648 C   0  0  0  0  0  0  0  0  0  0  0  0
   -1.9138   -4.3784   -1.8214 C   0  0  0  0  0  0  0  0  0  0  0  0
    0.4983   -4.3158   -2.1296 N   0  0  0  0  0  0  0  0  0  0  0  0
    1.6472   -4.9987   -2.1515 C   0  0  0  0  0  0  0  0  0  0  0  0
    2.6916   -2.1103   -1.8585 C   0  0  0  0  0  0  0  0  0  0  0  0
    0.9243    0.5751    0.7456 H   0  0  0  0  0  0  0  0  0  0  0  0
    1.9681   -0.8754    0.7957 H   0  0  0  0  0  0  0  0  0  0  0  0
    0.5403   -0.8253   -0.3026 H   0  0  0  0  0  0  0  0  0  0  0  0
    3.8199    0.6376   -3.5434 H   0  0  0  0  0  0  0  0  0  0  0  0
    4.6407   -1.1343   -5.0728 H   0  0  0  0  0  0  0  0  0  0  0  0
    4.1761   -3.5357   -4.5878 H   0  0  0  0  0  0  0  0  0  0  0  0
    5.6239   -4.3574   -1.9660 H   0  0  0  0  0  0  0  0  0  0  0  0
    5.6030   -5.1203   -3.5637 H   0  0  0  0  0  0  0  0  0  0  0  0
    5.8854   -6.1094   -2.1193 H   0  0  0  0  0  0  0  0  0  0  0  0
    4.9067   -8.0308   -2.0224 H   0  0  0  0  0  0  0  0  0  0  0  0
    3.4061   -8.7904   -2.5719 H   0  0  0  0  0  0  0  0  0  0  0  0
    3.6553   -8.4495   -0.8429 H   0  0  0  0  0  0  0  0  0  0  0  0
    1.3507   -8.9404   -1.2354 H   0  0  0  0  0  0  0  0  0  0  0  0
   -0.3753   -8.7769   -1.1212 H   0  0  0  0  0  0  0  0  0  0  0  0
   -2.6041   -4.8454   -2.5422 H   0  0  0  0  0  0  0  0  0  0  0  0
   -1.8069   -3.3115   -2.0548 H   0  0  0  0  0  0  0  0  0  0  0  0
   -2.3712   -4.4939   -0.8250 H   0  0  0  0  0  0  0  0  0  0  0  0
    2.1421   -2.4162   -0.9714 H   0  0  0  0  0  0  0  0  0  0  0  0
  1  2  1  0
  1 22  1  0
  1 23  1  0
  1 24  1  0
  2  3  1  0
  3  4  2  0
  3 21  1  0
  4  5  1  0
  4 25  1  0
  5  6  2  0
  5 26  1  0
  6  7  1  0
  6 27  1  0
  7  8  1  0
  7 21  2  0
  8  9  1  0
  8 20  1  0
  9 10  1  0
  9 11  2  0
 10 28  1  0
 10 29  1  0
 10 30  1  0
 11 12  1  0
 11 13  1  0
 12 31  1  0
 12 32  1  0
 12 33  1  0
 13 14  1  0
 13 20  2  0
 14 15  1  0
 14 16  2  0
 15 34  1  0
 15 35  1  0
 16 17  1  0
 17 18  1  0
 17 19  2  0
 18 36  1  0
 18 37  1  0
 18 38  1  0
 19 20  1  0
 21 39  1  0
M  END

