
     RDKit          3D

 41 43  0  0  0  0  0  0  0  0999 V2000
    0.9520   -0.1312    0.3197 C   0  0  0  0  0  0  0  0  0  0  0  0
    2.3536   -0.2691    0.2218 O   0  0  0  0  0  0  0  0  0  0  0  0
    2.8892   -1.1640   -0.6278 C   0  0  0  0  0  0  0  0  0  0  0  0
    2.1229   -2.0126   -1.4462 C   0  0  0  0  0  0  0  0  0  0  0  0
    2.7380   -2.9277   -2.3139 C   0  0  0  0  0  0  0  0  0  0  0  0
    2.0523   -3.7770   -3.1058 O   0  0  0  0  0  0  0  0  0  0  0  0
    0.6454   -3.6852   -3.1926 C   0  0  0  0  0  0  0  0  0  0  0  0
    4.1462   -2.9876   -2.3597 C   0  0  0  0  0  0  0  0  0  0  0  0
    5.0112   -4.0688   -3.5039 S   0  0  1  0  0  0  0  0  0  0  0  0
    4.4834   -3.8448   -4.8516 O   0  0  0  0  0  0  0  0  0  0  0  0
    6.4413   -3.8815   -3.2241 O   0  0  0  0  0  0  0  0  0  0  0  0
    4.5766   -5.6158   -3.0415 N   0  0  0  0  0  0  0  0  0  0  0  0
    5.3992   -6.3249   -2.0450 C   0  0  0  0  0  0  0  0  0  0  0  0
    5.2493   -7.8313   -2.3494 C   0  0  1  0  0  0  0  0  0  0  0  0
    3.7771   -8.2421   -2.1853 C   0  0  0  0  0  0  0  0  0  0  0  0
    2.9188   -7.3902   -3.1620 C   0  0  0  0  0  0  0  0  0  0  0  0
    3.8603   -6.4985   -3.9862 C   0  0  2  0  0  0  0  0  0  0  0  0
    4.8847   -7.3794   -4.7197 C   0  0  0  0  0  0  0  0  0  0  0  0
    5.6629   -8.1397   -3.7207 N   0  0  0  0  0  0  0  0  0  0  0  0
    4.9083   -2.1448   -1.5475 C   0  0  0  0  0  0  0  0  0  0  0  0
    4.2967   -1.2425   -0.6842 C   0  0  0  0  0  0  0  0  0  0  0  0
    5.3538   -0.1074    0.4136 Br  0  0  0  0  0  0  0  0  0  0  0  0
    0.7715    0.6550    1.0641 H   0  0  0  0  0  0  0  0  0  0  0  0
    0.4720   -1.0653    0.6617 H   0  0  0  0  0  0  0  0  0  0  0  0
    0.5033    0.1752   -0.6417 H   0  0  0  0  0  0  0  0  0  0  0  0
    1.0383   -1.9597   -1.4016 H   0  0  0  0  0  0  0  0  0  0  0  0
    0.3327   -4.4315   -3.9341 H   0  0  0  0  0  0  0  0  0  0  0  0
    0.3255   -2.6851   -3.5327 H   0  0  0  0  0  0  0  0  0  0  0  0
    0.1594   -3.9138   -2.2276 H   0  0  0  0  0  0  0  0  0  0  0  0
    5.0674   -6.0908   -1.0152 H   0  0  0  0  0  0  0  0  0  0  0  0
    6.4542   -6.0219   -2.1340 H   0  0  0  0  0  0  0  0  0  0  0  0
    5.8849   -8.4007   -1.6528 H   0  0  0  0  0  0  0  0  0  0  0  0
    3.4619   -8.0916   -1.1406 H   0  0  0  0  0  0  0  0  0  0  0  0
    3.6858   -9.3158   -2.4066 H   0  0  0  0  0  0  0  0  0  0  0  0
    2.2051   -6.7508   -2.6216 H   0  0  0  0  0  0  0  0  0  0  0  0
    2.3386   -8.0303   -3.8456 H   0  0  0  0  0  0  0  0  0  0  0  0
    3.3093   -5.8669   -4.6914 H   0  0  0  0  0  0  0  0  0  0  0  0
    5.5340   -6.7362   -5.3365 H   0  0  0  0  0  0  0  0  0  0  0  0
    4.3539   -8.0614   -5.4125 H   0  0  0  0  0  0  0  0  0  0  0  0
    6.6592   -7.9710   -3.8344 H   0  0  0  0  0  0  0  0  0  0  0  0
    5.9952   -2.2061   -1.6089 H   0  0  0  0  0  0  0  0  0  0  0  0
  1  2  1  0
  1 23  1  0
  1 24  1  0
  1 25  1  0
  2  3  1  0
  3  4  2  0
  3 21  1  0
  4  5  1  0
  4 26  1  0
  5  6  1  0
  5  8  2  0
  6  7  1  0
  7 27  1  0
  7 28  1  0
  7 29  1  0
  9  8  1  1
  8 20  1  0
  9 10  2  0
  9 11  2  0
  9 12  1  0
 12 13  1  0
 12 17  1  0
 13 14  1  0
 13 30  1  0
 13 31  1  0
 14 15  1  0
 14 19  1  0
 14 32  1  1
 15 16  1  0
 15 33  1  0
 15 34  1  0
 16 17  1  0
 16 35  1  0
 16 36  1  0
 17 18  1  0
 17 37  1  6
 18 19  1  0
 18 38  1  0
 18 39  1  0
 19 40  1  0
 20 21  2  0
 20 41  1  0
 21 22  1  0
M  END

