
     RDKit          3D

 31 33  0  0  0  0  0  0  0  0999 V2000
    2.4258   -0.3176    2.3413 S   0  0  0  0  0  0  0  0  0  0  0  0
    3.5670   -0.1115    1.1564 C   0  0  0  0  0  0  0  0  0  0  0  0
    4.3861    0.9868    0.9942 N   0  0  0  0  0  0  0  0  0  0  0  0
    4.3415    1.7699    1.6339 H   0  0  0  0  0  0  0  0  0  0  0  0
    5.1920    0.8616   -0.1214 C   0  0  0  0  0  0  0  0  0  0  0  0
    6.1426    1.6984   -0.6941 C   0  0  0  0  0  0  0  0  0  0  0  0
    6.7784    1.2645   -1.8680 C   0  0  0  0  0  0  0  0  0  0  0  0
    7.9723    2.3030   -2.5940 Cl  0  0  0  0  0  0  0  0  0  0  0  0
    6.4559    0.0206   -2.4456 C   0  0  0  0  0  0  0  0  0  0  0  0
    7.2389   -0.5139   -3.9067 Cl  0  0  0  0  0  0  0  0  0  0  0  0
    5.4961   -0.8206   -1.8603 C   0  0  0  0  0  0  0  0  0  0  0  0
    4.8734   -0.3907   -0.6917 C   0  0  0  0  0  0  0  0  0  0  0  0
    3.8943   -0.9681    0.1092 N   0  0  0  0  0  0  0  0  0  0  0  0
    3.2645   -2.2598   -0.1125 C   0  0  0  0  0  0  0  0  0  0  0  0
    4.1811   -3.4714    0.1496 C   0  0  0  0  0  0  0  0  0  0  0  0
    4.7525   -3.5479    1.5484 C   0  0  0  0  0  0  0  0  0  0  0  0
    3.9590   -3.8946    2.6512 C   0  0  0  0  0  0  0  0  0  0  0  0
    4.5387   -3.9453    3.9207 C   0  0  0  0  0  0  0  0  0  0  0  0
    5.8265   -3.6790    4.1580 N   0  0  0  0  0  0  0  0  0  0  0  0
    6.5845   -3.3469    3.1120 C   0  0  0  0  0  0  0  0  0  0  0  0
    6.1016   -3.2685    1.8012 C   0  0  0  0  0  0  0  0  0  0  0  0
    6.3986    2.6672   -0.2649 H   0  0  0  0  0  0  0  0  0  0  0  0
    5.2630   -1.7748   -2.3311 H   0  0  0  0  0  0  0  0  0  0  0  0
    2.8981   -2.2964   -1.1524 H   0  0  0  0  0  0  0  0  0  0  0  0
    2.3904   -2.2814    0.5545 H   0  0  0  0  0  0  0  0  0  0  0  0
    5.0062   -3.4807   -0.5797 H   0  0  0  0  0  0  0  0  0  0  0  0
    3.5768   -4.3716   -0.0545 H   0  0  0  0  0  0  0  0  0  0  0  0
    2.8964   -4.1202    2.5304 H   0  0  0  0  0  0  0  0  0  0  0  0
    3.9269   -4.2155    4.7896 H   0  0  0  0  0  0  0  0  0  0  0  0
    7.6400   -3.1317    3.3191 H   0  0  0  0  0  0  0  0  0  0  0  0
    6.7778   -2.9967    0.9859 H   0  0  0  0  0  0  0  0  0  0  0  0
  1  2  2  0
  2  3  1  0
  2 13  1  0
  3  4  1  0
  3  5  1  0
  5  6  2  0
  5 12  1  0
  6  7  1  0
  6 22  1  0
  7  8  1  0
  7  9  2  0
  9 10  1  0
  9 11  1  0
 11 12  2  0
 11 23  1  0
 12 13  1  0
 13 14  1  0
 14 15  1  0
 14 24  1  0
 14 25  1  0
 15 16  1  0
 15 26  1  0
 15 27  1  0
 16 17  2  0
 16 21  1  0
 17 18  1  0
 17 28  1  0
 18 19  2  0
 18 29  1  0
 19 20  1  0
 20 21  2  0
 20 30  1  0
 21 31  1  0
M  END

