
     RDKit          3D

 62 63  0  0  0  0  0  0  0  0999 V2000
    4.3874   -1.1453    2.9228 C   0  0  0  0  0  0  0  0  0  0  0  0
    3.3607   -1.9811    2.1557 C   0  0  0  0  0  0  0  0  0  0  0  0
    2.6786   -1.2842    0.9655 C   0  0  1  0  0  0  0  0  0  0  0  0
    1.8960   -0.1669    1.4219 O   0  0  0  0  0  0  0  0  0  0  0  0
    0.6508   -0.3223    1.9661 C   0  0  0  0  0  0  0  0  0  0  0  0
    0.0050   -1.5675    2.0269 C   0  0  0  0  0  0  0  0  0  0  0  0
   -1.2744   -1.6951    2.5653 C   0  0  0  0  0  0  0  0  0  0  0  0
   -1.9627   -0.5866    3.0698 C   0  0  0  0  0  0  0  0  0  0  0  0
   -3.3760   -0.7486    3.6645 C   0  0  1  0  0  0  0  0  0  0  0  0
   -3.3220   -1.7233    4.8639 C   0  0  0  0  0  0  0  0  0  0  0  0
   -3.9600    0.5870    4.1598 C   0  0  0  0  0  0  0  0  0  0  0  0
   -4.3267   -1.3183    2.5862 C   0  0  0  0  0  0  0  0  0  0  0  0
   -1.2959    0.6473    3.0028 C   0  0  0  0  0  0  0  0  0  0  0  0
   -0.0085    0.8325    2.4708 C   0  0  0  0  0  0  0  0  0  0  0  0
    0.6358    2.2402    2.4441 C   0  0  1  0  0  0  0  0  0  0  0  0
   -0.2830    3.3110    3.0667 C   0  0  0  0  0  0  0  0  0  0  0  0
    1.9528    2.2439    3.2554 C   0  0  0  0  0  0  0  0  0  0  0  0
    0.9152    2.6722    0.9851 C   0  0  0  0  0  0  0  0  0  0  0  0
    3.6289   -0.7210   -0.1154 C   0  0  1  0  0  0  0  0  0  0  0  0
    4.7037   -1.7249   -0.5888 C   0  0  0  0  0  0  0  0  0  0  0  0
    4.1420   -2.8549   -1.4648 C   0  0  0  0  0  0  0  0  0  0  0  0
    3.3794   -2.2964   -2.6732 C   0  0  0  0  0  0  0  0  0  0  0  0
    2.2919   -1.3052   -2.2405 C   0  0  0  0  0  0  0  0  0  0  0  0
    2.8554   -0.1908   -1.3451 C   0  0  0  0  0  0  0  0  0  0  0  0
    4.7787   -1.7114    3.7829 H   0  0  0  0  0  0  0  0  0  0  0  0
    3.9382   -0.2200    3.3130 H   0  0  0  0  0  0  0  0  0  0  0  0
    5.2489   -0.8615    2.2980 H   0  0  0  0  0  0  0  0  0  0  0  0
    2.5695   -2.3042    2.8518 H   0  0  0  0  0  0  0  0  0  0  0  0
    3.8270   -2.9113    1.7896 H   0  0  0  0  0  0  0  0  0  0  0  0
    2.0063   -2.0142    0.4870 H   0  0  0  0  0  0  0  0  0  0  0  0
    0.4988   -2.4627    1.6518 H   0  0  0  0  0  0  0  0  0  0  0  0
   -1.7275   -2.6893    2.5866 H   0  0  0  0  0  0  0  0  0  0  0  0
   -2.6568   -1.3395    5.6538 H   0  0  0  0  0  0  0  0  0  0  0  0
   -2.9504   -2.7164    4.5683 H   0  0  0  0  0  0  0  0  0  0  0  0
   -4.3261   -1.8592    5.2995 H   0  0  0  0  0  0  0  0  0  0  0  0
   -3.3456    1.0347    4.9566 H   0  0  0  0  0  0  0  0  0  0  0  0
   -4.9678    0.4231    4.5733 H   0  0  0  0  0  0  0  0  0  0  0  0
   -4.0531    1.3227    3.3456 H   0  0  0  0  0  0  0  0  0  0  0  0
   -3.9877   -2.2986    2.2178 H   0  0  0  0  0  0  0  0  0  0  0  0
   -4.3914   -0.6405    1.7201 H   0  0  0  0  0  0  0  0  0  0  0  0
   -5.3431   -1.4488    2.9941 H   0  0  0  0  0  0  0  0  0  0  0  0
   -1.8082    1.5229    3.3891 H   0  0  0  0  0  0  0  0  0  0  0  0
   -0.5113    3.1023    4.1236 H   0  0  0  0  0  0  0  0  0  0  0  0
   -1.2345    3.4133    2.5220 H   0  0  0  0  0  0  0  0  0  0  0  0
    0.2233    4.2881    3.0272 H   0  0  0  0  0  0  0  0  0  0  0  0
    1.7668    1.9612    4.3043 H   0  0  0  0  0  0  0  0  0  0  0  0
    2.3979    3.2529    3.2523 H   0  0  0  0  0  0  0  0  0  0  0  0
    2.6862    1.5461    2.8342 H   0  0  0  0  0  0  0  0  0  0  0  0
   -0.0175    2.6926    0.3984 H   0  0  0  0  0  0  0  0  0  0  0  0
    1.6185    1.9916    0.4910 H   0  0  0  0  0  0  0  0  0  0  0  0
    1.3481    3.6863    0.9652 H   0  0  0  0  0  0  0  0  0  0  0  0
    4.1454    0.1349    0.3510 H   0  0  0  0  0  0  0  0  0  0  0  0
    5.2635   -2.1408    0.2631 H   0  0  0  0  0  0  0  0  0  0  0  0
    5.4432   -1.1600   -1.1844 H   0  0  0  0  0  0  0  0  0  0  0  0
    3.4680   -3.4982   -0.8697 H   0  0  0  0  0  0  0  0  0  0  0  0
    4.9646   -3.5087   -1.8007 H   0  0  0  0  0  0  0  0  0  0  0  0
    2.9409   -3.1168   -3.2662 H   0  0  0  0  0  0  0  0  0  0  0  0
    4.0948   -1.7799   -3.3401 H   0  0  0  0  0  0  0  0  0  0  0  0
    1.4922   -1.8502   -1.7068 H   0  0  0  0  0  0  0  0  0  0  0  0
    1.8076   -0.8586   -3.1252 H   0  0  0  0  0  0  0  0  0  0  0  0
    2.0473    0.4809   -1.0206 H   0  0  0  0  0  0  0  0  0  0  0  0
    3.5501    0.4256   -1.9436 H   0  0  0  0  0  0  0  0  0  0  0  0
  1  2  1  0
  1 25  1  0
  1 26  1  0
  1 27  1  0
  2  3  1  0
  2 28  1  0
  2 29  1  0
  3  4  1  0
  3 19  1  0
  3 30  1  6
  4  5  1  0
  5  6  2  0
  5 14  1  0
  6  7  1  0
  6 31  1  0
  7  8  2  0
  7 32  1  0
  8  9  1  0
  8 13  1  0
  9 10  1  1
  9 11  1  0
  9 12  1  0
 10 33  1  0
 10 34  1  0
 10 35  1  0
 11 36  1  0
 11 37  1  0
 11 38  1  0
 12 39  1  0
 12 40  1  0
 12 41  1  0
 13 14  2  0
 13 42  1  0
 14 15  1  0
 15 16  1  1
 15 17  1  0
 15 18  1  0
 16 43  1  0
 16 44  1  0
 16 45  1  0
 17 46  1  0
 17 47  1  0
 17 48  1  0
 18 49  1  0
 18 50  1  0
 18 51  1  0
 19 20  1  0
 19 24  1  0
 19 52  1  1
 20 21  1  0
 20 53  1  0
 20 54  1  0
 21 22  1  0
 21 55  1  0
 21 56  1  0
 22 23  1  0
 22 57  1  0
 22 58  1  0
 23 24  1  0
 23 59  1  0
 23 60  1  0
 24 61  1  0
 24 62  1  0
M  END

