
     RDKit          3D

 52 57  0  0  0  0  0  0  0  0999 V2000
    1.1298    0.2002   -0.3442 C   0  0  0  0  0  0  0  0  0  0  0  0
    2.5723   -0.0483   -0.0541 C   0  0  0  0  0  0  0  0  0  0  0  0
    2.9869   -0.8115    0.9778 N   0  0  0  0  0  0  0  0  0  0  0  0
    4.3809   -0.8424    0.9723 C   0  0  0  0  0  0  0  0  0  0  0  0
    5.1038   -1.5633    1.9353 C   0  0  0  0  0  0  0  0  0  0  0  0
    6.6005   -1.5744    1.8962 C   0  0  0  0  0  0  0  0  0  0  0  0
    7.3307   -0.5872    2.5932 C   0  0  0  0  0  0  0  0  0  0  0  0
    6.6647    0.4371    3.3469 C   0  0  0  0  0  0  0  0  0  0  0  0
    7.3662    1.3991    4.0254 C   0  0  0  0  0  0  0  0  0  0  0  0
    8.7891    1.3976    3.9928 C   0  0  0  0  0  0  0  0  0  0  0  0
    9.4652    0.4366    3.2854 C   0  0  0  0  0  0  0  0  0  0  0  0
    8.7821   -0.5963    2.5559 C   0  0  0  0  0  0  0  0  0  0  0  0
    9.4660   -1.5965    1.8205 C   0  0  0  0  0  0  0  0  0  0  0  0
   10.9753   -1.6483    1.7525 C   0  0  0  0  0  0  0  0  0  0  0  0
    8.7211   -2.5823    1.1239 C   0  0  0  0  0  0  0  0  0  0  0  0
    9.3643   -3.6159    0.3633 C   0  0  0  0  0  0  0  0  0  0  0  0
    8.6449   -4.5705   -0.3117 C   0  0  0  0  0  0  0  0  0  0  0  0
    7.2227   -4.5578   -0.2731 C   0  0  0  0  0  0  0  0  0  0  0  0
    6.5624   -3.5899    0.4402 C   0  0  0  0  0  0  0  0  0  0  0  0
    7.2753   -2.5743    1.1598 C   0  0  0  0  0  0  0  0  0  0  0  0
    4.4214   -2.2757    2.9335 C   0  0  0  0  0  0  0  0  0  0  0  0
    4.9197   -3.0685    4.0027 C   0  0  0  0  0  0  0  0  0  0  0  0
    3.8173   -3.5489    4.6968 C   0  0  0  0  0  0  0  0  0  0  0  0
    2.6569   -3.0484    4.0493 C   0  0  0  0  0  0  0  0  0  0  0  0
    1.2279   -3.2790    4.4118 C   0  0  0  0  0  0  0  0  0  0  0  0
    3.0285   -2.2895    2.9980 N   0  0  0  0  0  0  0  0  0  0  0  0
    2.0692   -1.5440    2.0121 B   0  0  1  0  0  0  0  0  0  0  0  0
    1.3000   -0.6158    2.7069 F   0  0  0  0  0  0  0  0  0  0  0  0
    1.2525   -2.4611    1.3579 F   0  0  0  0  0  0  0  0  0  0  0  0
    4.8347   -0.0564   -0.1214 C   0  0  0  0  0  0  0  0  0  0  0  0
    3.7048    0.4376   -0.7595 C   0  0  0  0  0  0  0  0  0  0  0  0
    0.6025   -0.7505   -0.5211 H   0  0  0  0  0  0  0  0  0  0  0  0
    1.0159    0.8467   -1.2246 H   0  0  0  0  0  0  0  0  0  0  0  0
    0.6381    0.6736    0.5202 H   0  0  0  0  0  0  0  0  0  0  0  0
    5.5743    0.4426    3.3749 H   0  0  0  0  0  0  0  0  0  0  0  0
    6.8349    2.1679    4.5917 H   0  0  0  0  0  0  0  0  0  0  0  0
    9.3450    2.1666    4.5348 H   0  0  0  0  0  0  0  0  0  0  0  0
   10.5539    0.4646    3.2813 H   0  0  0  0  0  0  0  0  0  0  0  0
   11.4623   -0.8534    2.3256 H   0  0  0  0  0  0  0  0  0  0  0  0
   11.3299   -1.5608    0.7123 H   0  0  0  0  0  0  0  0  0  0  0  0
   11.3582   -2.6067    2.1400 H   0  0  0  0  0  0  0  0  0  0  0  0
   10.4526   -3.6465    0.3182 H   0  0  0  0  0  0  0  0  0  0  0  0
    9.1649   -5.3443   -0.8820 H   0  0  0  0  0  0  0  0  0  0  0  0
    6.6571   -5.3209   -0.8133 H   0  0  0  0  0  0  0  0  0  0  0  0
    5.4718   -3.5858    0.4654 H   0  0  0  0  0  0  0  0  0  0  0  0
    5.9723   -3.2464    4.2119 H   0  0  0  0  0  0  0  0  0  0  0  0
    3.8140   -4.1907    5.5758 H   0  0  0  0  0  0  0  0  0  0  0  0
    1.1505   -3.9228    5.2981 H   0  0  0  0  0  0  0  0  0  0  0  0
    0.6879   -3.7477    3.5740 H   0  0  0  0  0  0  0  0  0  0  0  0
    0.7213   -2.3218    4.6126 H   0  0  0  0  0  0  0  0  0  0  0  0
    5.8776    0.1086   -0.3833 H   0  0  0  0  0  0  0  0  0  0  0  0
    3.6653    1.0793   -1.6378 H   0  0  0  0  0  0  0  0  0  0  0  0
  1  2  1  0
  1 32  1  0
  1 33  1  0
  1 34  1  0
  2  3  1  0
  2 31  2  0
  3  4  1  0
  3 27  1  0
  4  5  1  0
  4 30  2  0
  5  6  1  0
  5 21  2  0
  6  7  1  0
  6 20  2  0
  7  8  2  0
  7 12  1  0
  8  9  1  0
  8 35  1  0
  9 10  2  0
  9 36  1  0
 10 11  1  0
 10 37  1  0
 11 12  2  0
 11 38  1  0
 12 13  1  0
 13 14  1  0
 13 15  2  0
 14 39  1  0
 14 40  1  0
 14 41  1  0
 15 16  1  0
 15 20  1  0
 16 17  2  0
 16 42  1  0
 17 18  1  0
 17 43  1  0
 18 19  2  0
 18 44  1  0
 19 20  1  0
 19 45  1  0
 21 22  1  0
 21 26  1  0
 22 23  2  0
 22 46  1  0
 23 24  1  0
 23 47  1  0
 24 25  1  0
 24 26  2  0
 25 48  1  0
 25 49  1  0
 25 50  1  0
 26 27  1  0
 27 28  1  1
 27 29  1  0
 30 31  1  0
 30 51  1  0
 31 52  1  0
M  CHG  2  26   1  27  -1
M  END

