
     RDKit          3D

 43 45  0  0  0  0  0  0  0  0999 V2000
    2.8952    0.4454    0.9601 C   0  0  0  0  0  0  0  0  0  0  0  0
    2.3223   -0.1892   -0.3065 C   0  0  0  0  0  0  0  0  0  0  0  0
    3.1148   -1.3257   -0.7749 N   0  0  0  0  0  0  0  0  0  0  0  0
    4.2146   -1.3144   -1.6052 C   0  0  0  0  0  0  0  0  0  0  0  0
    4.7062   -0.1262   -2.3733 C   0  0  0  0  0  0  0  0  0  0  0  0
    3.8282    0.2632   -3.5554 C   0  0  0  0  0  0  0  0  0  0  0  0
    3.4227    1.5920   -3.7456 C   0  0  0  0  0  0  0  0  0  0  0  0
    2.6361    1.9509   -4.8458 C   0  0  0  0  0  0  0  0  0  0  0  0
    2.2432    0.9813   -5.7713 C   0  0  0  0  0  0  0  0  0  0  0  0
    2.6426   -0.3477   -5.5904 C   0  0  0  0  0  0  0  0  0  0  0  0
    3.4273   -0.7040   -4.4917 C   0  0  0  0  0  0  0  0  0  0  0  0
    4.7421   -2.5162   -1.6699 N   0  0  0  0  0  0  0  0  0  0  0  0
    3.9922   -3.3495   -0.8841 N   0  0  0  0  0  0  0  0  0  0  0  0
    3.0339   -2.6302   -0.3530 C   0  0  0  0  0  0  0  0  0  0  0  0
    1.7834   -3.2227    0.7467 S   0  0  0  0  0  0  0  0  0  0  0  0
    2.8104   -4.3851    1.6991 C   0  0  0  0  0  0  0  0  0  0  0  0
    3.7122   -3.7293    2.7482 C   0  0  0  0  0  0  0  0  0  0  0  0
    3.7849   -2.5253    2.8751 O   0  0  0  0  0  0  0  0  0  0  0  0
    4.5223   -4.6424    3.6231 C   0  0  0  0  0  0  0  0  0  0  0  0
    5.3169   -4.0592    4.6251 C   0  0  0  0  0  0  0  0  0  0  0  0
    6.0907   -4.8508    5.4710 C   0  0  0  0  0  0  0  0  0  0  0  0
    6.0772   -6.2354    5.3180 C   0  0  0  0  0  0  0  0  0  0  0  0
    6.8083   -7.0124    6.1139 F   0  0  0  0  0  0  0  0  0  0  0  0
    5.2924   -6.8275    4.3211 C   0  0  0  0  0  0  0  0  0  0  0  0
    5.2988   -8.1556    4.1925 F   0  0  0  0  0  0  0  0  0  0  0  0
    4.5184   -6.0418    3.4775 C   0  0  0  0  0  0  0  0  0  0  0  0
    2.2411    1.2641    1.2991 H   0  0  0  0  0  0  0  0  0  0  0  0
    3.8981    0.8634    0.7780 H   0  0  0  0  0  0  0  0  0  0  0  0
    2.9763   -0.3021    1.7630 H   0  0  0  0  0  0  0  0  0  0  0  0
    2.2593    0.5350   -1.1319 H   0  0  0  0  0  0  0  0  0  0  0  0
    1.2992   -0.5497   -0.1249 H   0  0  0  0  0  0  0  0  0  0  0  0
    5.7100   -0.4049   -2.7311 H   0  0  0  0  0  0  0  0  0  0  0  0
    4.8362    0.7421   -1.7077 H   0  0  0  0  0  0  0  0  0  0  0  0
    3.7306    2.3585   -3.0278 H   0  0  0  0  0  0  0  0  0  0  0  0
    2.3302    2.9921   -4.9780 H   0  0  0  0  0  0  0  0  0  0  0  0
    1.6280    1.2587   -6.6311 H   0  0  0  0  0  0  0  0  0  0  0  0
    2.3411   -1.1125   -6.3110 H   0  0  0  0  0  0  0  0  0  0  0  0
    3.7383   -1.7431   -4.3525 H   0  0  0  0  0  0  0  0  0  0  0  0
    3.4238   -4.9522    0.9815 H   0  0  0  0  0  0  0  0  0  0  0  0
    2.1137   -5.0907    2.1779 H   0  0  0  0  0  0  0  0  0  0  0  0
    5.3124   -2.9726    4.7217 H   0  0  0  0  0  0  0  0  0  0  0  0
    6.7140   -4.4177    6.2560 H   0  0  0  0  0  0  0  0  0  0  0  0
    3.9323   -6.5512    2.7118 H   0  0  0  0  0  0  0  0  0  0  0  0
  1  2  1  0
  1 27  1  0
  1 28  1  0
  1 29  1  0
  2  3  1  0
  2 30  1  0
  2 31  1  0
  3  4  1  0
  3 14  1  0
  4  5  1  0
  4 12  2  0
  5  6  1  0
  5 32  1  0
  5 33  1  0
  6  7  2  0
  6 11  1  0
  7  8  1  0
  7 34  1  0
  8  9  2  0
  8 35  1  0
  9 10  1  0
  9 36  1  0
 10 11  2  0
 10 37  1  0
 11 38  1  0
 12 13  1  0
 13 14  2  0
 14 15  1  0
 15 16  1  0
 16 17  1  0
 16 39  1  0
 16 40  1  0
 17 18  2  0
 17 19  1  0
 19 20  2  0
 19 26  1  0
 20 21  1  0
 20 41  1  0
 21 22  2  0
 21 42  1  0
 22 23  1  0
 22 24  1  0
 24 25  1  0
 24 26  2  0
 26 43  1  0
M  END

