
     RDKit          3D

 29 31  0  0  0  0  0  0  0  0999 V2000
    1.2234    0.7227    1.3007 O   0  0  0  0  0  0  0  0  0  0  0  0
    2.3449    0.6213    0.9004 C   0  0  0  0  0  0  0  0  0  0  0  0
    2.9462    1.2231   -0.1951 N   0  0  0  0  0  0  0  0  0  0  0  0
    2.4381    1.8548   -0.8002 H   0  0  0  0  0  0  0  0  0  0  0  0
    4.2733    0.8290   -0.3015 C   0  0  0  0  0  0  0  0  0  0  0  0
    5.3063    1.1255   -1.1837 C   0  0  0  0  0  0  0  0  0  0  0  0
    6.5488    0.5178   -0.9463 C   0  0  0  0  0  0  0  0  0  0  0  0
    6.7592   -0.3610    0.1310 C   0  0  0  0  0  0  0  0  0  0  0  0
    8.0861   -1.0958    0.2941 C   0  0  1  0  0  0  0  0  0  0  0  0
    8.0865   -2.2972   -0.4627 O   0  0  0  0  0  0  0  0  0  0  0  0
    9.3158   -0.2269    0.0192 C   0  0  0  0  0  0  0  0  0  0  0  0
    9.4704    1.0178    0.6512 C   0  0  0  0  0  0  0  0  0  0  0  0
   10.6147    1.7852    0.4308 C   0  0  0  0  0  0  0  0  0  0  0  0
   11.6250    1.3312   -0.4244 C   0  0  0  0  0  0  0  0  0  0  0  0
   11.4669    0.0913   -1.0445 C   0  0  0  0  0  0  0  0  0  0  0  0
   12.8334   -0.5562   -2.2119 Br  0  0  0  0  0  0  0  0  0  0  0  0
   10.3298   -0.6925   -0.8259 C   0  0  0  0  0  0  0  0  0  0  0  0
    5.6998   -0.6548    1.0135 C   0  0  0  0  0  0  0  0  0  0  0  0
    4.4809   -0.0468    0.7754 C   0  0  0  0  0  0  0  0  0  0  0  0
    3.3217   -0.1682    1.4939 O   0  0  0  0  0  0  0  0  0  0  0  0
    5.1654    1.8082   -2.0239 H   0  0  0  0  0  0  0  0  0  0  0  0
    7.3811    0.7487   -1.6154 H   0  0  0  0  0  0  0  0  0  0  0  0
    8.1576   -1.4307    1.3430 H   0  0  0  0  0  0  0  0  0  0  0  0
    7.7546   -2.0912   -1.3480 H   0  0  0  0  0  0  0  0  0  0  0  0
    8.6883    1.3903    1.3175 H   0  0  0  0  0  0  0  0  0  0  0  0
   10.7270    2.7525    0.9273 H   0  0  0  0  0  0  0  0  0  0  0  0
   12.5197    1.9295   -0.6029 H   0  0  0  0  0  0  0  0  0  0  0  0
   10.2284   -1.6706   -1.2952 H   0  0  0  0  0  0  0  0  0  0  0  0
    5.8287   -1.3401    1.8532 H   0  0  0  0  0  0  0  0  0  0  0  0
  1  2  2  0
  2  3  1  0
  2 20  1  0
  3  4  1  0
  3  5  1  0
  5  6  2  0
  5 19  1  0
  6  7  1  0
  6 21  1  0
  7  8  2  0
  7 22  1  0
  8  9  1  0
  8 18  1  0
  9 10  1  0
  9 11  1  0
  9 23  1  1
 10 24  1  0
 11 12  2  0
 11 17  1  0
 12 13  1  0
 12 25  1  0
 13 14  2  0
 13 26  1  0
 14 15  1  0
 14 27  1  0
 15 16  1  0
 15 17  2  0
 17 28  1  0
 18 19  2  0
 18 29  1  0
 19 20  1  0
M  END

