
     RDKit          3D

 38 40  0  0  0  0  0  0  0  0999 V2000
    4.9798   -5.1670   -2.1237 N   0  0  0  0  0  0  0  0  0  0  0  0
    5.3351   -3.8901   -1.6956 C   0  0  0  0  0  0  0  0  0  0  0  0
    6.4891   -3.2609   -2.2434 C   0  0  0  0  0  0  0  0  0  0  0  0
    6.9188   -2.0127   -1.8180 C   0  0  0  0  0  0  0  0  0  0  0  0
    6.1947   -1.3377   -0.8165 C   0  0  0  0  0  0  0  0  0  0  0  0
    6.3295   -0.0533   -0.1527 C   0  0  0  0  0  0  0  0  0  0  0  0
    7.4827    0.8571   -0.3980 C   0  0  0  0  0  0  0  0  0  0  0  0
    8.5396    0.3765   -0.7988 O   0  0  0  0  0  0  0  0  0  0  0  0
    7.3615    2.2222   -0.1774 N   0  0  0  0  0  0  0  0  0  0  0  0
    8.5574    3.0422   -0.3423 C   0  0  0  0  0  0  0  0  0  0  0  0
    8.8914    3.9444    0.8550 C   0  0  0  0  0  0  0  0  0  0  0  0
    7.9099    5.1036    1.0903 C   0  0  0  0  0  0  0  0  0  0  0  0
    6.6055    4.7684    1.8392 C   0  0  0  0  0  0  0  0  0  0  0  0
    5.9134    3.4347    1.4771 C   0  0  0  0  0  0  0  0  0  0  0  0
    6.1067    2.9322    0.0342 C   0  0  0  0  0  0  0  0  0  0  0  0
    5.2974    0.0109    0.7671 C   0  0  0  0  0  0  0  0  0  0  0  0
    4.5390   -1.1359    0.6959 N   0  0  0  0  0  0  0  0  0  0  0  0
    3.7411   -1.3378    1.2829 H   0  0  0  0  0  0  0  0  0  0  0  0
    5.0539   -1.9788   -0.2687 C   0  0  0  0  0  0  0  0  0  0  0  0
    4.6063   -3.2373   -0.6929 C   0  0  0  0  0  0  0  0  0  0  0  0
    5.3091   -5.4291   -3.0459 H   0  0  0  0  0  0  0  0  0  0  0  0
    4.0156   -5.4375   -1.9669 H   0  0  0  0  0  0  0  0  0  0  0  0
    7.0547   -3.7918   -3.0147 H   0  0  0  0  0  0  0  0  0  0  0  0
    7.8149   -1.5535   -2.2359 H   0  0  0  0  0  0  0  0  0  0  0  0
    8.4420    3.6773   -1.2439 H   0  0  0  0  0  0  0  0  0  0  0  0
    9.3828    2.3484   -0.5403 H   0  0  0  0  0  0  0  0  0  0  0  0
    9.8901    4.3700    0.6557 H   0  0  0  0  0  0  0  0  0  0  0  0
    8.9987    3.3287    1.7658 H   0  0  0  0  0  0  0  0  0  0  0  0
    7.6680    5.5483    0.1081 H   0  0  0  0  0  0  0  0  0  0  0  0
    8.4206    5.9047    1.6510 H   0  0  0  0  0  0  0  0  0  0  0  0
    5.9008    5.6012    1.6721 H   0  0  0  0  0  0  0  0  0  0  0  0
    6.8011    4.7659    2.9252 H   0  0  0  0  0  0  0  0  0  0  0  0
    4.8323    3.5366    1.6765 H   0  0  0  0  0  0  0  0  0  0  0  0
    6.2731    2.6377    2.1487 H   0  0  0  0  0  0  0  0  0  0  0  0
    6.0645    3.7829   -0.6716 H   0  0  0  0  0  0  0  0  0  0  0  0
    5.2818    2.2668   -0.2463 H   0  0  0  0  0  0  0  0  0  0  0  0
    5.0596    0.7703    1.5070 H   0  0  0  0  0  0  0  0  0  0  0  0
    3.7218   -3.7046   -0.2512 H   0  0  0  0  0  0  0  0  0  0  0  0
  1  2  1  0
  1 21  1  0
  1 22  1  0
  2  3  2  0
  2 20  1  0
  3  4  1  0
  3 23  1  0
  4  5  2  0
  4 24  1  0
  5  6  1  0
  5 19  1  0
  6  7  1  0
  6 16  2  0
  7  8  2  0
  7  9  1  0
  9 10  1  0
  9 15  1  0
 10 11  1  0
 10 25  1  0
 10 26  1  0
 11 12  1  0
 11 27  1  0
 11 28  1  0
 12 13  1  0
 12 29  1  0
 12 30  1  0
 13 14  1  0
 13 31  1  0
 13 32  1  0
 14 15  1  0
 14 33  1  0
 14 34  1  0
 15 35  1  0
 15 36  1  0
 16 17  1  0
 16 37  1  0
 17 18  1  0
 17 19  1  0
 19 20  2  0
 20 38  1  0
M  END

