
     RDKit          3D

 56 59  0  0  0  0  0  0  0  0999 V2000
    3.3897    0.5799    1.9601 C   0  0  0  0  0  0  0  0  0  0  0  0
    2.6411    1.2190    0.7960 C   0  0  0  0  0  0  0  0  0  0  0  0
    3.1214    0.7926   -0.5366 N   0  0  0  0  0  0  0  0  0  0  0  0
    2.2118    1.2183   -1.6154 C   0  0  0  0  0  0  0  0  0  0  0  0
    2.5326    0.5613   -2.9676 C   0  0  0  0  0  0  0  0  0  0  0  0
    1.5587    0.9863   -4.0414 C   0  0  0  0  0  0  0  0  0  0  0  0
    1.7148    2.1960   -4.7343 C   0  0  0  0  0  0  0  0  0  0  0  0
    0.7680    2.5628   -5.6946 C   0  0  0  0  0  0  0  0  0  0  0  0
   -0.2992    1.8209   -6.0027 N   0  0  0  0  0  0  0  0  0  0  0  0
   -0.4516    0.6686   -5.3463 C   0  0  0  0  0  0  0  0  0  0  0  0
    0.4369    0.2118   -4.3680 C   0  0  0  0  0  0  0  0  0  0  0  0
    4.4831    1.0896   -0.7754 C   0  0  0  0  0  0  0  0  0  0  0  0
    5.5614    0.2539   -0.8284 C   0  0  0  0  0  0  0  0  0  0  0  0
    5.6475   -1.2089   -0.6895 C   0  0  0  0  0  0  0  0  0  0  0  0
    6.8957   -1.8718   -0.6801 C   0  0  0  0  0  0  0  0  0  0  0  0
    6.9649   -3.2602   -0.5544 C   0  0  0  0  0  0  0  0  0  0  0  0
    5.7998   -4.0220   -0.4390 C   0  0  0  0  0  0  0  0  0  0  0  0
    4.5558   -3.3806   -0.4483 C   0  0  0  0  0  0  0  0  0  0  0  0
    4.4775   -1.9952   -0.5684 C   0  0  0  0  0  0  0  0  0  0  0  0
    6.7776    1.1365   -1.0998 C   0  0  0  0  0  0  0  0  0  0  0  0
    7.9380    0.8187   -1.2430 O   0  0  0  0  0  0  0  0  0  0  0  0
    6.3286    2.4525   -1.1669 N   0  0  0  0  0  0  0  0  0  0  0  0
    7.1796    3.6035   -1.4521 C   0  0  0  0  0  0  0  0  0  0  0  0
    7.2863    3.9284   -2.9300 C   0  0  0  0  0  0  0  0  0  0  0  0
    6.3826    4.8164   -3.5328 C   0  0  0  0  0  0  0  0  0  0  0  0
    6.4631    5.1074   -4.8964 C   0  0  0  0  0  0  0  0  0  0  0  0
    7.4588    4.5007   -5.6677 C   0  0  0  0  0  0  0  0  0  0  0  0
    7.5700    4.8623   -7.3752 Cl  0  0  0  0  0  0  0  0  0  0  0  0
    8.3675    3.6096   -5.0893 C   0  0  0  0  0  0  0  0  0  0  0  0
    8.2750    3.3287   -3.7246 C   0  0  0  0  0  0  0  0  0  0  0  0
    4.9514    2.5098   -0.9838 C   0  0  0  0  0  0  0  0  0  0  0  0
    4.2870    3.5252   -0.9876 O   0  0  0  0  0  0  0  0  0  0  0  0
    2.9504    0.9199    2.9110 H   0  0  0  0  0  0  0  0  0  0  0  0
    4.4545    0.8599    1.9724 H   0  0  0  0  0  0  0  0  0  0  0  0
    3.3292   -0.5185    1.9265 H   0  0  0  0  0  0  0  0  0  0  0  0
    2.6703    2.3235    0.8897 H   0  0  0  0  0  0  0  0  0  0  0  0
    1.5788    0.9291    0.8465 H   0  0  0  0  0  0  0  0  0  0  0  0
    2.1983    2.3186   -1.7316 H   0  0  0  0  0  0  0  0  0  0  0  0
    1.1963    0.9192   -1.3091 H   0  0  0  0  0  0  0  0  0  0  0  0
    2.5143   -0.5338   -2.8522 H   0  0  0  0  0  0  0  0  0  0  0  0
    3.5548    0.8332   -3.2777 H   0  0  0  0  0  0  0  0  0  0  0  0
    2.5704    2.8469   -4.5334 H   0  0  0  0  0  0  0  0  0  0  0  0
    0.8836    3.5052   -6.2436 H   0  0  0  0  0  0  0  0  0  0  0  0
   -1.3295    0.0665   -5.6113 H   0  0  0  0  0  0  0  0  0  0  0  0
    0.2569   -0.7454   -3.8705 H   0  0  0  0  0  0  0  0  0  0  0  0
    7.8101   -1.2902   -0.7780 H   0  0  0  0  0  0  0  0  0  0  0  0
    7.9423   -3.7493   -0.5485 H   0  0  0  0  0  0  0  0  0  0  0  0
    5.8587   -5.1092   -0.3418 H   0  0  0  0  0  0  0  0  0  0  0  0
    3.6373   -3.9665   -0.3588 H   0  0  0  0  0  0  0  0  0  0  0  0
    3.5110   -1.4935   -0.5667 H   0  0  0  0  0  0  0  0  0  0  0  0
    8.1710    3.3765   -1.0367 H   0  0  0  0  0  0  0  0  0  0  0  0
    6.7539    4.4560   -0.9045 H   0  0  0  0  0  0  0  0  0  0  0  0
    5.6001    5.2815   -2.9275 H   0  0  0  0  0  0  0  0  0  0  0  0
    5.7628    5.8023   -5.3631 H   0  0  0  0  0  0  0  0  0  0  0  0
    9.1388    3.1445   -5.7055 H   0  0  0  0  0  0  0  0  0  0  0  0
    8.9781    2.6258   -3.2702 H   0  0  0  0  0  0  0  0  0  0  0  0
  1  2  1  0
  1 33  1  0
  1 34  1  0
  1 35  1  0
  2  3  1  0
  2 36  1  0
  2 37  1  0
  3  4  1  0
  3 12  1  0
  4  5  1  0
  4 38  1  0
  4 39  1  0
  5  6  1  0
  5 40  1  0
  5 41  1  0
  6  7  2  0
  6 11  1  0
  7  8  1  0
  7 42  1  0
  8  9  2  0
  8 43  1  0
  9 10  1  0
 10 11  2  0
 10 44  1  0
 11 45  1  0
 12 13  2  0
 12 31  1  0
 13 14  1  0
 13 20  1  0
 14 15  2  0
 14 19  1  0
 15 16  1  0
 15 46  1  0
 16 17  2  0
 16 47  1  0
 17 18  1  0
 17 48  1  0
 18 19  2  0
 18 49  1  0
 19 50  1  0
 20 21  2  0
 20 22  1  0
 22 23  1  0
 22 31  1  0
 23 24  1  0
 23 51  1  0
 23 52  1  0
 24 25  2  0
 24 30  1  0
 25 26  1  0
 25 53  1  0
 26 27  2  0
 26 54  1  0
 27 28  1  0
 27 29  1  0
 29 30  2  0
 29 55  1  0
 30 56  1  0
 31 32  2  0
M  END

