
     RDKit          3D

 47 48  0  0  0  0  0  0  0  0999 V2000
    1.4342   -0.3706   -0.2748 C   0  0  0  0  0  0  0  0  0  0  0  0
    2.9113    0.0253   -0.1710 C   0  0  1  0  0  0  0  0  0  0  0  0
    3.2716    0.2045    1.1953 O   0  0  0  0  0  0  0  0  0  0  0  0
    3.8470   -1.0070   -0.8368 C   0  0  0  0  0  0  0  0  0  0  0  0
    3.7814   -0.9828   -2.3700 C   0  0  0  0  0  0  0  0  0  0  0  0
    3.9736    0.4402   -2.9052 C   0  0  0  0  0  0  0  0  0  0  0  0
    3.0471    1.3637   -2.2587 N   0  0  0  0  0  0  0  0  0  0  0  0
    2.1522    2.0739   -3.0440 C   0  0  0  0  0  0  0  0  0  0  0  0
    2.1521    1.9743   -4.2699 O   0  0  0  0  0  0  0  0  0  0  0  0
    1.2649    2.8923   -2.3862 N   0  0  0  0  0  0  0  0  0  0  0  0
    0.2734    3.6632   -3.0973 C   0  0  0  0  0  0  0  0  0  0  0  0
    0.4711    5.2012   -3.0263 C   0  0  1  0  0  0  0  0  0  0  0  0
    0.3345    5.6190   -1.5479 C   0  0  0  0  0  0  0  0  0  0  0  0
    0.2293    4.8410   -0.6315 O   0  0  0  0  0  0  0  0  0  0  0  0
    0.3546    6.9424   -1.2856 O   0  0  0  0  0  0  0  0  0  0  0  0
    1.8739    5.6330   -3.5418 C   0  0  0  0  0  0  0  0  0  0  0  0
    2.0571    5.4125   -5.0494 C   0  0  0  0  0  0  0  0  0  0  0  0
    0.9555    6.1079   -5.8587 C   0  0  0  0  0  0  0  0  0  0  0  0
   -0.4426    5.6836   -5.3927 C   0  0  0  0  0  0  0  0  0  0  0  0
   -0.6279    5.8935   -3.8824 C   0  0  0  0  0  0  0  0  0  0  0  0
    3.1684    1.4055   -0.8130 C   0  0  0  0  0  0  0  0  0  0  0  0
    1.2672   -1.3630    0.1780 H   0  0  0  0  0  0  0  0  0  0  0  0
    1.0891   -0.4177   -1.3181 H   0  0  0  0  0  0  0  0  0  0  0  0
    0.8110    0.3598    0.2638 H   0  0  0  0  0  0  0  0  0  0  0  0
    3.1100   -0.6265    1.6615 H   0  0  0  0  0  0  0  0  0  0  0  0
    3.6211   -2.0170   -0.4503 H   0  0  0  0  0  0  0  0  0  0  0  0
    4.8718   -0.7630   -0.5067 H   0  0  0  0  0  0  0  0  0  0  0  0
    2.8104   -1.3711   -2.7212 H   0  0  0  0  0  0  0  0  0  0  0  0
    4.5568   -1.6441   -2.7916 H   0  0  0  0  0  0  0  0  0  0  0  0
    3.7989    0.4964   -3.9856 H   0  0  0  0  0  0  0  0  0  0  0  0
    5.0122    0.7728   -2.7072 H   0  0  0  0  0  0  0  0  0  0  0  0
    1.2444    2.9769   -1.3794 H   0  0  0  0  0  0  0  0  0  0  0  0
   -0.7300    3.4356   -2.6991 H   0  0  0  0  0  0  0  0  0  0  0  0
    0.3037    3.3266   -4.1395 H   0  0  0  0  0  0  0  0  0  0  0  0
    0.4344    7.4500   -2.1058 H   0  0  0  0  0  0  0  0  0  0  0  0
    2.6476    5.0919   -2.9750 H   0  0  0  0  0  0  0  0  0  0  0  0
    2.0242    6.7058   -3.3185 H   0  0  0  0  0  0  0  0  0  0  0  0
    2.0692    4.3308   -5.2615 H   0  0  0  0  0  0  0  0  0  0  0  0
    3.0468    5.7957   -5.3493 H   0  0  0  0  0  0  0  0  0  0  0  0
    1.0774    5.8959   -6.9337 H   0  0  0  0  0  0  0  0  0  0  0  0
    1.0558    7.2046   -5.7470 H   0  0  0  0  0  0  0  0  0  0  0  0
   -0.6113    4.6241   -5.6489 H   0  0  0  0  0  0  0  0  0  0  0  0
   -1.2177    6.2527   -5.9326 H   0  0  0  0  0  0  0  0  0  0  0  0
   -1.6230    5.5416   -3.5612 H   0  0  0  0  0  0  0  0  0  0  0  0
   -0.6184    6.9825   -3.6888 H   0  0  0  0  0  0  0  0  0  0  0  0
    2.4965    2.1427   -0.3569 H   0  0  0  0  0  0  0  0  0  0  0  0
    4.1941    1.7100   -0.5319 H   0  0  0  0  0  0  0  0  0  0  0  0
  1  2  1  0
  1 22  1  0
  1 23  1  0
  1 24  1  0
  2  3  1  1
  2  4  1  0
  2 21  1  0
  3 25  1  0
  4  5  1  0
  4 26  1  0
  4 27  1  0
  5  6  1  0
  5 28  1  0
  5 29  1  0
  6  7  1  0
  6 30  1  0
  6 31  1  0
  7  8  1  0
  7 21  1  0
  8  9  2  0
  8 10  1  0
 10 11  1  0
 10 32  1  0
 11 12  1  0
 11 33  1  0
 11 34  1  0
 12 13  1  1
 12 16  1  0
 12 20  1  0
 13 14  2  0
 13 15  1  0
 15 35  1  0
 16 17  1  0
 16 36  1  0
 16 37  1  0
 17 18  1  0
 17 38  1  0
 17 39  1  0
 18 19  1  0
 18 40  1  0
 18 41  1  0
 19 20  1  0
 19 42  1  0
 19 43  1  0
 20 44  1  0
 20 45  1  0
 21 46  1  0
 21 47  1  0
M  END

