
     RDKit          3D

 61 64  0  0  0  0  0  0  0  0999 V2000
    1.3985   -2.6081    0.1772 C   0  0  0  0  0  0  0  0  0  0  0  0
    2.8010   -2.5348   -0.0731 O   0  0  0  0  0  0  0  0  0  0  0  0
    3.4391   -1.4417    0.4173 C   0  0  0  0  0  0  0  0  0  0  0  0
    2.8723   -0.5854    1.0493 O   0  0  0  0  0  0  0  0  0  0  0  0
    4.9035   -1.5318    0.1471 C   0  0  0  0  0  0  0  0  0  0  0  0
    5.6881   -0.4840   -0.2241 C   0  0  0  0  0  0  0  0  0  0  0  0
    5.1986    0.8463   -0.5680 C   0  0  0  0  0  0  0  0  0  0  0  0
    5.8468    2.0578   -0.5642 C   0  0  0  0  0  0  0  0  0  0  0  0
    4.8931    3.0360   -1.0109 C   0  0  0  0  0  0  0  0  0  0  0  0
    4.8946    4.4275   -1.2232 C   0  0  0  0  0  0  0  0  0  0  0  0
    3.7275    5.0276   -1.6899 C   0  0  0  0  0  0  0  0  0  0  0  0
    2.5651    4.2695   -1.9473 C   0  0  0  0  0  0  0  0  0  0  0  0
    2.5384    2.8889   -1.7442 C   0  0  0  0  0  0  0  0  0  0  0  0
    3.7132    2.3057   -1.2749 C   0  0  0  0  0  0  0  0  0  0  0  0
    3.9091    0.9879   -1.0151 O   0  0  0  0  0  0  0  0  0  0  0  0
    7.2001   -0.6548   -0.3215 C   0  0  0  0  0  0  0  0  0  0  0  0
    7.6363   -2.1263   -0.2197 C   0  0  2  0  0  0  0  0  0  0  0  0
    8.7151   -2.1793   -0.0297 H   0  0  0  0  0  0  0  0  0  0  0  0
    7.1855   -2.9728   -1.4360 C   0  0  0  0  0  0  0  0  0  0  0  0
    5.8314   -3.5991   -1.0021 C   0  0  0  0  0  0  0  0  0  0  0  0
    5.5485   -2.9103    0.3528 C   0  0  1  0  0  0  0  0  0  0  0  0
    4.9131   -3.5378    0.9912 H   0  0  0  0  0  0  0  0  0  0  0  0
    6.9021   -2.7560    0.8844 N   0  0  0  0  0  0  0  0  0  0  0  0
    7.2368   -2.4128    2.1930 C   0  0  0  0  0  0  0  0  0  0  0  0
    8.2711   -1.8102    2.4479 O   0  0  0  0  0  0  0  0  0  0  0  0
    6.3495   -2.8241    3.1567 N   0  0  0  0  0  0  0  0  0  0  0  0
    6.5422   -2.5419    4.5659 C   0  0  0  0  0  0  0  0  0  0  0  0
    5.4067   -1.7059    5.1662 C   0  0  0  0  0  0  0  0  0  0  0  0
    5.5993   -1.4254    6.6502 C   0  0  0  0  0  0  0  0  0  0  0  0
    6.7932   -0.6997    6.8241 O   0  0  0  0  0  0  0  0  0  0  0  0
    7.0936   -0.2798    8.1490 C   0  0  1  0  0  0  0  0  0  0  0  0
    7.6494   -1.4272    8.9966 C   0  0  0  0  0  0  0  0  0  0  0  0
    8.0760    0.8790    8.0286 C   0  0  0  0  0  0  0  0  0  0  0  0
    1.0551   -3.5496   -0.2695 H   0  0  0  0  0  0  0  0  0  0  0  0
    0.8746   -1.7558   -0.2814 H   0  0  0  0  0  0  0  0  0  0  0  0
    1.1899   -2.5983    1.2581 H   0  0  0  0  0  0  0  0  0  0  0  0
    6.8759    2.2304   -0.2590 H   0  0  0  0  0  0  0  0  0  0  0  0
    5.7897    5.0223   -1.0260 H   0  0  0  0  0  0  0  0  0  0  0  0
    3.7070    6.1068   -1.8605 H   0  0  0  0  0  0  0  0  0  0  0  0
    1.6666    4.7743   -2.3106 H   0  0  0  0  0  0  0  0  0  0  0  0
    1.6466    2.2893   -1.9340 H   0  0  0  0  0  0  0  0  0  0  0  0
    7.6750   -0.0897    0.4993 H   0  0  0  0  0  0  0  0  0  0  0  0
    7.5641   -0.2124   -1.2631 H   0  0  0  0  0  0  0  0  0  0  0  0
    7.9251   -3.7569   -1.6539 H   0  0  0  0  0  0  0  0  0  0  0  0
    7.0921   -2.3529   -2.3399 H   0  0  0  0  0  0  0  0  0  0  0  0
    5.9311   -4.6841   -0.8455 H   0  0  0  0  0  0  0  0  0  0  0  0
    5.0152   -3.4332   -1.7179 H   0  0  0  0  0  0  0  0  0  0  0  0
    5.5505   -3.3813    2.8861 H   0  0  0  0  0  0  0  0  0  0  0  0
    7.4921   -2.0006    4.6569 H   0  0  0  0  0  0  0  0  0  0  0  0
    6.6491   -3.4870    5.1328 H   0  0  0  0  0  0  0  0  0  0  0  0
    4.4399   -2.2254    5.0358 H   0  0  0  0  0  0  0  0  0  0  0  0
    5.3331   -0.7509    4.6203 H   0  0  0  0  0  0  0  0  0  0  0  0
    5.6240   -2.3829    7.2123 H   0  0  0  0  0  0  0  0  0  0  0  0
    4.7349   -0.8490    7.0414 H   0  0  0  0  0  0  0  0  0  0  0  0
    6.1596    0.0913    8.6229 H   0  0  0  0  0  0  0  0  0  0  0  0
    8.5754   -1.8187    8.5452 H   0  0  0  0  0  0  0  0  0  0  0  0
    6.9323   -2.2582    9.0833 H   0  0  0  0  0  0  0  0  0  0  0  0
    7.8795   -1.0813   10.0170 H   0  0  0  0  0  0  0  0  0  0  0  0
    9.0024    0.5418    7.5365 H   0  0  0  0  0  0  0  0  0  0  0  0
    8.3341    1.2822    9.0202 H   0  0  0  0  0  0  0  0  0  0  0  0
    7.6425    1.6867    7.4202 H   0  0  0  0  0  0  0  0  0  0  0  0
  1  2  1  0
  1 34  1  0
  1 35  1  0
  1 36  1  0
  2  3  1  0
  3  4  2  0
  3  5  1  0
  5  6  2  0
  5 21  1  0
  6  7  1  0
  6 16  1  0
  7  8  2  0
  7 15  1  0
  8  9  1  0
  8 37  1  0
  9 10  2  0
  9 14  1  0
 10 11  1  0
 10 38  1  0
 11 12  2  0
 11 39  1  0
 12 13  1  0
 12 40  1  0
 13 14  2  0
 13 41  1  0
 14 15  1  0
 16 17  1  0
 16 42  1  0
 16 43  1  0
 17 18  1  1
 17 19  1  0
 17 23  1  0
 19 20  1  0
 19 44  1  0
 19 45  1  0
 20 21  1  0
 20 46  1  0
 20 47  1  0
 21 22  1  1
 21 23  1  0
 23 24  1  0
 24 25  2  0
 24 26  1  0
 26 27  1  0
 26 48  1  0
 27 28  1  0
 27 49  1  0
 27 50  1  0
 28 29  1  0
 28 51  1  0
 28 52  1  0
 29 30  1  0
 29 53  1  0
 29 54  1  0
 30 31  1  0
 31 32  1  0
 31 33  1  0
 31 55  1  1
 32 56  1  0
 32 57  1  0
 32 58  1  0
 33 59  1  0
 33 60  1  0
 33 61  1  0
M  END

