
     RDKit          3D

 76 78  0  0  0  0  0  0  0  0999 V2000
    1.6866    3.3167   -4.1766 C   0  0  0  0  0  0  0  0  0  0  0  0
    3.1842    3.0208   -4.0924 C   0  0  1  0  0  0  0  0  0  0  0  0
    3.8372    3.6904   -2.8835 C   0  0  0  0  0  0  0  0  0  0  0  0
    3.3388    1.5445   -4.0448 N   0  0  0  0  0  0  0  0  0  0  0  0
    4.8157    0.8504   -4.4062 S   0  0  1  0  0  0  0  0  0  0  0  0
    4.5073   -0.5030   -4.8804 O   0  0  0  0  0  0  0  0  0  0  0  0
    5.6533    1.7252   -5.2357 O   0  0  0  0  0  0  0  0  0  0  0  0
    5.5121    0.8454   -2.8880 N   0  0  0  0  0  0  0  0  0  0  0  0
    6.9523    0.5854   -2.7402 C   0  0  2  0  0  0  0  0  0  0  0  0
    7.2508   -0.3380   -3.2560 H   0  0  0  0  0  0  0  0  0  0  0  0
    7.2208    0.4027   -1.2226 C   0  0  0  0  0  0  0  0  0  0  0  0
    6.5438   -0.8100   -0.6257 C   0  0  0  0  0  0  0  0  0  0  0  0
    7.1031   -2.0901   -0.7905 C   0  0  0  0  0  0  0  0  0  0  0  0
    6.4744   -3.2198   -0.2636 C   0  0  0  0  0  0  0  0  0  0  0  0
    5.2717   -3.0934    0.4411 C   0  0  0  0  0  0  0  0  0  0  0  0
    4.7081   -1.8282    0.6201 C   0  0  0  0  0  0  0  0  0  0  0  0
    5.3413   -0.6967    0.0924 C   0  0  0  0  0  0  0  0  0  0  0  0
    7.7678    1.8139   -3.2055 C   0  0  0  0  0  0  0  0  0  0  0  0
    7.5297    2.8864   -2.6697 O   0  0  0  0  0  0  0  0  0  0  0  0
    8.7859    1.7134   -4.1269 N   0  0  0  0  0  0  0  0  0  0  0  0
    9.5965    2.9320   -4.2962 C   0  0  0  0  0  0  0  0  0  0  0  0
   10.3800    2.7104   -5.5826 C   0  0  0  0  0  0  0  0  0  0  0  0
   10.5237    1.1893   -5.6778 C   0  0  0  0  0  0  0  0  0  0  0  0
    9.3021    0.5688   -4.9056 C   0  0  2  0  0  0  0  0  0  0  0  0
    8.2374   -0.0725   -5.8331 C   0  0  0  0  0  0  0  0  0  0  0  0
    7.7026    0.7620   -6.9827 C   0  0  0  0  0  0  0  0  0  0  0  0
    8.0904    1.8421   -7.3507 O   0  0  0  0  0  0  0  0  0  0  0  0
    6.7374    0.0817   -7.6234 O   0  0  0  0  0  0  0  0  0  0  0  0
    9.8612   -0.5315   -3.9437 C   0  0  0  0  0  0  0  0  0  0  0  0
    9.7477   -0.4300   -2.7330 O   0  0  0  0  0  0  0  0  0  0  0  0
   10.4773   -1.6445   -4.4626 N   0  0  0  0  0  0  0  0  0  0  0  0
   11.0526   -1.9399   -5.7656 C   0  0  0  0  0  0  0  0  0  0  0  0
   10.9256   -3.4071   -6.1353 C   0  0  0  0  0  0  0  0  0  0  0  0
    9.7599   -4.1351   -5.8491 C   0  0  0  0  0  0  0  0  0  0  0  0
    9.6385   -5.4679   -6.2406 C   0  0  0  0  0  0  0  0  0  0  0  0
   10.6789   -6.1159   -6.9263 C   0  0  0  0  0  0  0  0  0  0  0  0
   10.5229   -7.5428   -7.3646 C   0  0  0  0  0  0  0  0  0  0  0  0
    9.4320   -8.0800   -7.7709 N   0  0  0  0  0  0  0  0  0  0  0  0
   11.6919   -8.2818   -7.3629 N   0  0  0  0  0  0  0  0  0  0  0  0
   11.8493   -5.3905   -7.2022 C   0  0  0  0  0  0  0  0  0  0  0  0
   11.9677   -4.0549   -6.8128 C   0  0  0  0  0  0  0  0  0  0  0  0
    1.5192    4.4020   -4.2451 H   0  0  0  0  0  0  0  0  0  0  0  0
    1.1611    2.9439   -3.2824 H   0  0  0  0  0  0  0  0  0  0  0  0
    1.2301    2.8517   -5.0667 H   0  0  0  0  0  0  0  0  0  0  0  0
    3.6722    3.4017   -5.0081 H   0  0  0  0  0  0  0  0  0  0  0  0
    3.3718    3.3371   -1.9489 H   0  0  0  0  0  0  0  0  0  0  0  0
    3.6991    4.7814   -2.9495 H   0  0  0  0  0  0  0  0  0  0  0  0
    4.9154    3.4845   -2.8304 H   0  0  0  0  0  0  0  0  0  0  0  0
    2.6451    1.0371   -4.5941 H   0  0  0  0  0  0  0  0  0  0  0  0
    4.9437    0.2661   -2.2675 H   0  0  0  0  0  0  0  0  0  0  0  0
    6.8877    1.3264   -0.7283 H   0  0  0  0  0  0  0  0  0  0  0  0
    8.3076    0.3220   -1.1016 H   0  0  0  0  0  0  0  0  0  0  0  0
    8.0503   -2.1864   -1.3285 H   0  0  0  0  0  0  0  0  0  0  0  0
    6.9271   -4.2060   -0.3975 H   0  0  0  0  0  0  0  0  0  0  0  0
    4.7806   -3.9781    0.8544 H   0  0  0  0  0  0  0  0  0  0  0  0
    3.7748   -1.7173    1.1784 H   0  0  0  0  0  0  0  0  0  0  0  0
    4.9048    0.2934    0.2559 H   0  0  0  0  0  0  0  0  0  0  0  0
   10.2539    3.0613   -3.4163 H   0  0  0  0  0  0  0  0  0  0  0  0
    8.9356    3.8067   -4.3319 H   0  0  0  0  0  0  0  0  0  0  0  0
   11.3571    3.2158   -5.5632 H   0  0  0  0  0  0  0  0  0  0  0  0
    9.8063    3.0785   -6.4400 H   0  0  0  0  0  0  0  0  0  0  0  0
   11.4589    0.8676   -5.1926 H   0  0  0  0  0  0  0  0  0  0  0  0
   10.5595    0.8449   -6.7199 H   0  0  0  0  0  0  0  0  0  0  0  0
    8.6355   -0.9887   -6.2943 H   0  0  0  0  0  0  0  0  0  0  0  0
    7.3638   -0.4189   -5.2667 H   0  0  0  0  0  0  0  0  0  0  0  0
    6.4004    0.6657   -8.3237 H   0  0  0  0  0  0  0  0  0  0  0  0
   10.7963   -2.2542   -3.7123 H   0  0  0  0  0  0  0  0  0  0  0  0
   12.1190   -1.6502   -5.7989 H   0  0  0  0  0  0  0  0  0  0  0  0
   10.5559   -1.3320   -6.5329 H   0  0  0  0  0  0  0  0  0  0  0  0
    8.9438   -3.6556   -5.3034 H   0  0  0  0  0  0  0  0  0  0  0  0
    8.7286   -6.0221   -5.9974 H   0  0  0  0  0  0  0  0  0  0  0  0
    8.6851   -7.3851   -7.8278 H   0  0  0  0  0  0  0  0  0  0  0  0
   12.3707   -8.0850   -6.6362 H   0  0  0  0  0  0  0  0  0  0  0  0
   11.5557   -9.2676   -7.5661 H   0  0  0  0  0  0  0  0  0  0  0  0
   12.6657   -5.8757   -7.7414 H   0  0  0  0  0  0  0  0  0  0  0  0
   12.8862   -3.5071   -7.0436 H   0  0  0  0  0  0  0  0  0  0  0  0
  1  2  1  0
  1 42  1  0
  1 43  1  0
  1 44  1  0
  2  3  1  0
  2  4  1  0
  2 45  1  6
  3 46  1  0
  3 47  1  0
  3 48  1  0
  5  4  1  1
  4 49  1  0
  5  6  2  0
  5  7  2  0
  5  8  1  0
  8  9  1  0
  8 50  1  0
  9 10  1  6
  9 11  1  0
  9 18  1  0
 11 12  1  0
 11 51  1  0
 11 52  1  0
 12 13  2  0
 12 17  1  0
 13 14  1  0
 13 53  1  0
 14 15  2  0
 14 54  1  0
 15 16  1  0
 15 55  1  0
 16 17  2  0
 16 56  1  0
 17 57  1  0
 18 19  2  0
 18 20  1  0
 20 21  1  0
 20 24  1  0
 21 22  1  0
 21 58  1  0
 21 59  1  0
 22 23  1  0
 22 60  1  0
 22 61  1  0
 23 24  1  0
 23 62  1  0
 23 63  1  0
 24 25  1  0
 24 29  1  1
 25 26  1  0
 25 64  1  0
 25 65  1  0
 26 27  2  0
 26 28  1  0
 28 66  1  0
 29 30  2  0
 29 31  1  0
 31 32  1  0
 31 67  1  0
 32 33  1  0
 32 68  1  0
 32 69  1  0
 33 34  2  0
 33 41  1  0
 34 35  1  0
 34 70  1  0
 35 36  2  0
 35 71  1  0
 36 37  1  0
 36 40  1  0
 37 38  2  0
 37 39  1  0
 38 72  1  0
 39 73  1  0
 39 74  1  0
 40 41  2  0
 40 75  1  0
 41 76  1  0
M  END

