
     RDKit          3D

 43 46  0  0  0  0  0  0  0  0999 V2000
    1.1543   -0.2408    0.1422 C   0  0  0  0  0  0  0  0  0  0  0  0
    2.3288   -0.0332   -0.7947 C   0  0  0  0  0  0  0  0  0  0  0  0
    3.3198   -0.9981   -0.4789 O   0  0  0  0  0  0  0  0  0  0  0  0
    4.4866   -1.0190   -1.1699 C   0  0  0  0  0  0  0  0  0  0  0  0
    4.8091   -0.1470   -2.2225 C   0  0  0  0  0  0  0  0  0  0  0  0
    6.0428   -0.2597   -2.8673 C   0  0  0  0  0  0  0  0  0  0  0  0
    6.9966   -1.2236   -2.4970 C   0  0  0  0  0  0  0  0  0  0  0  0
    8.3156   -1.3299   -3.1721 C   0  0  0  0  0  0  0  0  0  0  0  0
    8.9130   -0.2813   -3.7721 C   0  0  0  0  0  0  0  0  0  0  0  0
   10.2557   -0.3183   -4.4491 C   0  0  0  0  0  0  0  0  0  0  0  0
   10.9494   -1.5833   -4.2278 N   0  0  0  0  0  0  0  0  0  0  0  0
   12.2939   -1.7207   -4.0674 C   0  0  0  0  0  0  0  0  0  0  0  0
   12.8076   -2.9375   -3.9464 N   0  0  0  0  0  0  0  0  0  0  0  0
   14.1420   -3.1147   -3.7804 C   0  0  0  0  0  0  0  0  0  0  0  0
   15.0547   -2.1018   -3.7277 C   0  0  0  0  0  0  0  0  0  0  0  0
   14.5419   -0.8190   -3.8518 N   0  0  0  0  0  0  0  0  0  0  0  0
   15.1144    0.4214   -3.8401 C   0  0  0  0  0  0  0  0  0  0  0  0
   14.1916    1.3506   -3.9865 N   0  0  0  0  0  0  0  0  0  0  0  0
   12.9916    0.7448   -4.0982 N   0  0  0  0  0  0  0  0  0  0  0  0
   13.1873   -0.5691   -4.0186 C   0  0  0  0  0  0  0  0  0  0  0  0
   10.0808   -2.7566   -4.2705 C   0  0  0  0  0  0  0  0  0  0  0  0
    9.0186   -2.6752   -3.1737 C   0  0  0  0  0  0  0  0  0  0  0  0
    6.6421   -2.0992   -1.4479 C   0  0  0  0  0  0  0  0  0  0  0  0
    5.4196   -1.9992   -0.7927 C   0  0  0  0  0  0  0  0  0  0  0  0
    0.3607    0.4913   -0.0732 H   0  0  0  0  0  0  0  0  0  0  0  0
    1.4670   -0.1185    1.1904 H   0  0  0  0  0  0  0  0  0  0  0  0
    0.7371   -1.2526    0.0240 H   0  0  0  0  0  0  0  0  0  0  0  0
    2.7441    0.9865   -0.6826 H   0  0  0  0  0  0  0  0  0  0  0  0
    2.0128   -0.1459   -1.8494 H   0  0  0  0  0  0  0  0  0  0  0  0
    4.1043    0.6140   -2.5577 H   0  0  0  0  0  0  0  0  0  0  0  0
    6.2544    0.4148   -3.7000 H   0  0  0  0  0  0  0  0  0  0  0  0
    8.4308    0.7005   -3.7761 H   0  0  0  0  0  0  0  0  0  0  0  0
   10.8855    0.5114   -4.1019 H   0  0  0  0  0  0  0  0  0  0  0  0
   10.1235   -0.1491   -5.5404 H   0  0  0  0  0  0  0  0  0  0  0  0
   14.4857   -4.1495   -3.6866 H   0  0  0  0  0  0  0  0  0  0  0  0
   16.1292   -2.2168   -3.5968 H   0  0  0  0  0  0  0  0  0  0  0  0
   16.1832    0.5896   -3.7241 H   0  0  0  0  0  0  0  0  0  0  0  0
   10.7051   -3.6494   -4.1652 H   0  0  0  0  0  0  0  0  0  0  0  0
    9.5885   -2.7918   -5.2605 H   0  0  0  0  0  0  0  0  0  0  0  0
    9.4879   -2.8660   -2.1913 H   0  0  0  0  0  0  0  0  0  0  0  0
    8.2846   -3.4843   -3.3258 H   0  0  0  0  0  0  0  0  0  0  0  0
    7.3440   -2.8685   -1.1194 H   0  0  0  0  0  0  0  0  0  0  0  0
    5.1596   -2.6748    0.0249 H   0  0  0  0  0  0  0  0  0  0  0  0
  1  2  1  0
  1 25  1  0
  1 26  1  0
  1 27  1  0
  2  3  1  0
  2 28  1  0
  2 29  1  0
  3  4  1  0
  4  5  2  0
  4 24  1  0
  5  6  1  0
  5 30  1  0
  6  7  2  0
  6 31  1  0
  7  8  1  0
  7 23  1  0
  8  9  2  0
  8 22  1  0
  9 10  1  0
  9 32  1  0
 10 11  1  0
 10 33  1  0
 10 34  1  0
 11 12  1  0
 11 21  1  0
 12 13  2  0
 12 20  1  0
 13 14  1  0
 14 15  2  0
 14 35  1  0
 15 16  1  0
 15 36  1  0
 16 17  1  0
 16 20  1  0
 17 18  2  0
 17 37  1  0
 18 19  1  0
 19 20  2  0
 21 22  1  0
 21 38  1  0
 21 39  1  0
 22 40  1  0
 22 41  1  0
 23 24  2  0
 23 42  1  0
 24 43  1  0
M  END

