
     RDKit          3D

 35 35  0  0  0  0  0  0  0  0999 V2000
    4.6419    2.3667   -0.1855 C   0  0  0  0  0  0  0  0  0  0  0  0
    3.9937    1.0033   -0.0860 C   0  0  0  0  0  0  0  0  0  0  0  0
    2.6180    0.9209    0.1877 C   0  0  0  0  0  0  0  0  0  0  0  0
    1.9870   -0.3170    0.2842 C   0  0  0  0  0  0  0  0  0  0  0  0
    2.7106   -1.4949    0.1021 C   0  0  0  0  0  0  0  0  0  0  0  0
    4.0902   -1.4399   -0.1641 C   0  0  0  0  0  0  0  0  0  0  0  0
    4.8603   -2.6036   -0.3138 N   0  0  0  0  0  0  0  0  0  0  0  0
    4.2731   -3.9303   -0.4045 C   0  0  0  0  0  0  0  0  0  0  0  0
    5.3760   -4.9797   -0.2317 C   0  0  1  0  0  0  0  0  0  0  0  0
    6.0333   -4.7816    1.0048 O   0  0  0  0  0  0  0  0  0  0  0  0
    4.8396   -6.4054   -0.2840 C   0  0  0  0  0  0  0  0  0  0  0  0
    5.9272   -7.4732   -0.1691 C   0  0  0  0  0  0  0  0  0  0  0  0
    5.3444   -8.8101   -0.2737 N   0  0  0  0  0  0  0  0  0  0  0  0
    4.7416   -0.1794   -0.2572 C   0  0  0  0  0  0  0  0  0  0  0  0
    6.2275   -0.1547   -0.5262 C   0  0  0  0  0  0  0  0  0  0  0  0
    3.8976    3.1630   -0.0412 H   0  0  0  0  0  0  0  0  0  0  0  0
    5.1150    2.5299   -1.1683 H   0  0  0  0  0  0  0  0  0  0  0  0
    5.4274    2.5085    0.5761 H   0  0  0  0  0  0  0  0  0  0  0  0
    2.0424    1.8401    0.3229 H   0  0  0  0  0  0  0  0  0  0  0  0
    0.9151   -0.3708    0.4927 H   0  0  0  0  0  0  0  0  0  0  0  0
    2.1971   -2.4545    0.1611 H   0  0  0  0  0  0  0  0  0  0  0  0
    5.6406   -2.4823   -0.9537 H   0  0  0  0  0  0  0  0  0  0  0  0
    3.7229   -4.0977   -1.3532 H   0  0  0  0  0  0  0  0  0  0  0  0
    3.5543   -4.0576    0.4198 H   0  0  0  0  0  0  0  0  0  0  0  0
    6.0987   -4.8531   -1.0728 H   0  0  0  0  0  0  0  0  0  0  0  0
    6.0814   -3.8204    1.1307 H   0  0  0  0  0  0  0  0  0  0  0  0
    4.2870   -6.5618   -1.2257 H   0  0  0  0  0  0  0  0  0  0  0  0
    4.1149   -6.5316    0.5416 H   0  0  0  0  0  0  0  0  0  0  0  0
    6.5011   -7.2901    0.7613 H   0  0  0  0  0  0  0  0  0  0  0  0
    6.6408   -7.3462   -1.0032 H   0  0  0  0  0  0  0  0  0  0  0  0
    4.7572   -8.9958    0.5415 H   0  0  0  0  0  0  0  0  0  0  0  0
    6.0798   -9.5169   -0.2489 H   0  0  0  0  0  0  0  0  0  0  0  0
    6.7703   -0.8070    0.1796 H   0  0  0  0  0  0  0  0  0  0  0  0
    6.6537    0.8517   -0.4413 H   0  0  0  0  0  0  0  0  0  0  0  0
    6.4715   -0.5171   -1.5436 H   0  0  0  0  0  0  0  0  0  0  0  0
  1  2  1  0
  1 16  1  0
  1 17  1  0
  1 18  1  0
  2  3  2  0
  2 14  1  0
  3  4  1  0
  3 19  1  0
  4  5  2  0
  4 20  1  0
  5  6  1  0
  5 21  1  0
  6  7  1  0
  6 14  2  0
  7  8  1  0
  7 22  1  0
  8  9  1  0
  8 23  1  0
  8 24  1  0
  9 10  1  0
  9 11  1  0
  9 25  1  6
 10 26  1  0
 11 12  1  0
 11 27  1  0
 11 28  1  0
 12 13  1  0
 12 29  1  0
 12 30  1  0
 13 31  1  0
 13 32  1  0
 14 15  1  0
 15 33  1  0
 15 34  1  0
 15 35  1  0
M  END

