
     RDKit          3D

 32 33  0  0  0  0  0  0  0  0999 V2000
    3.6016    0.2679   -1.7151 C   0  0  0  0  0  0  0  0  0  0  0  0
    2.7268    0.0602   -0.1472 S   0  0  1  0  0  0  0  0  0  0  0  0
    3.3278    0.9976    0.8127 O   0  0  0  0  0  0  0  0  0  0  0  0
    1.2894    0.0896   -0.4446 O   0  0  0  0  0  0  0  0  0  0  0  0
    3.1587   -1.6119    0.3819 C   0  0  0  0  0  0  0  0  0  0  0  0
    4.1825   -1.7736    1.3156 C   0  0  0  0  0  0  0  0  0  0  0  0
    4.5001   -3.0684    1.7344 C   0  0  0  0  0  0  0  0  0  0  0  0
    3.7933   -4.1397    1.2098 C   0  0  0  0  0  0  0  0  0  0  0  0
    4.0926   -5.3896    1.6097 F   0  0  0  0  0  0  0  0  0  0  0  0
    2.7508   -3.9904    0.2709 C   0  0  0  0  0  0  0  0  0  0  0  0
    2.1134   -5.1592   -0.1593 N   0  0  0  0  0  0  0  0  0  0  0  0
    1.1324   -5.2666   -1.1155 C   0  0  0  0  0  0  0  0  0  0  0  0
    0.6801   -4.3011   -1.7080 O   0  0  0  0  0  0  0  0  0  0  0  0
    0.5542   -6.6470   -1.3756 C   0  0  0  0  0  0  0  0  0  0  0  0
   -0.7364   -6.6256   -1.9418 C   0  0  0  0  0  0  0  0  0  0  0  0
   -1.4297   -7.7913   -2.2523 C   0  0  0  0  0  0  0  0  0  0  0  0
   -0.8343   -9.0331   -2.0149 C   0  0  0  0  0  0  0  0  0  0  0  0
    0.4486   -9.0924   -1.4730 C   0  0  0  0  0  0  0  0  0  0  0  0
    1.1332   -7.9139   -1.1560 C   0  0  0  0  0  0  0  0  0  0  0  0
    2.7600   -8.1325   -0.5122 Cl  0  0  0  0  0  0  0  0  0  0  0  0
    2.4299   -2.6855   -0.1377 C   0  0  0  0  0  0  0  0  0  0  0  0
    3.3459    1.2834   -2.0494 H   0  0  0  0  0  0  0  0  0  0  0  0
    3.2407   -0.4778   -2.4350 H   0  0  0  0  0  0  0  0  0  0  0  0
    4.6815    0.1776   -1.5413 H   0  0  0  0  0  0  0  0  0  0  0  0
    4.7014   -0.9006    1.7139 H   0  0  0  0  0  0  0  0  0  0  0  0
    5.2854   -3.2631    2.4671 H   0  0  0  0  0  0  0  0  0  0  0  0
    2.4647   -6.0171    0.2557 H   0  0  0  0  0  0  0  0  0  0  0  0
   -1.1734   -5.6446   -2.1340 H   0  0  0  0  0  0  0  0  0  0  0  0
   -2.4318   -7.7307   -2.6823 H   0  0  0  0  0  0  0  0  0  0  0  0
   -1.3616   -9.9594   -2.2549 H   0  0  0  0  0  0  0  0  0  0  0  0
    0.9368  -10.0515   -1.2937 H   0  0  0  0  0  0  0  0  0  0  0  0
    1.6134   -2.5261   -0.8381 H   0  0  0  0  0  0  0  0  0  0  0  0
  2  1  1  6
  1 22  1  0
  1 23  1  0
  1 24  1  0
  2  3  2  0
  2  4  2  0
  2  5  1  0
  5  6  2  0
  5 21  1  0
  6  7  1  0
  6 25  1  0
  7  8  2  0
  7 26  1  0
  8  9  1  0
  8 10  1  0
 10 11  1  0
 10 21  2  0
 11 12  1  0
 11 27  1  0
 12 13  2  0
 12 14  1  0
 14 15  2  0
 14 19  1  0
 15 16  1  0
 15 28  1  0
 16 17  2  0
 16 29  1  0
 17 18  1  0
 17 30  1  0
 18 19  2  0
 18 31  1  0
 19 20  1  0
 21 32  1  0
M  END

