
     RDKit          3D

 37 38  0  0  0  0  0  0  0  0999 V2000
    1.4154    0.2523   -0.8257 C   0  0  0  0  0  0  0  0  0  0  0  0
    2.4663   -0.1673    0.0775 N   0  0  0  0  0  0  0  0  0  0  0  0
    2.9155   -1.5435    0.0709 C   0  0  0  0  0  0  0  0  0  0  0  0
    3.1427    0.7757    0.8304 C   0  0  0  0  0  0  0  0  0  0  0  0
    2.7944    2.1459    0.8073 C   0  0  0  0  0  0  0  0  0  0  0  0
    3.4643    3.0863    1.5818 C   0  0  0  0  0  0  0  0  0  0  0  0
    4.5325    2.7257    2.4230 C   0  0  0  0  0  0  0  0  0  0  0  0
    5.2063    3.6664    3.2320 N   0  0  0  0  0  0  0  0  0  0  0  0
    5.0076    5.0216    3.3036 C   0  0  0  0  0  0  0  0  0  0  0  0
    4.1719    5.6339    2.6570 O   0  0  0  0  0  0  0  0  0  0  0  0
    5.8354    5.7634    4.3364 C   0  0  0  0  0  0  0  0  0  0  0  0
    5.1319    6.7601    5.0415 C   0  0  0  0  0  0  0  0  0  0  0  0
    5.7332    7.5491    6.0159 C   0  0  0  0  0  0  0  0  0  0  0  0
    7.0877    7.3550    6.2789 C   0  0  0  0  0  0  0  0  0  0  0  0
    7.6920    8.1026    7.2076 F   0  0  0  0  0  0  0  0  0  0  0  0
    7.8373    6.4091    5.5874 C   0  0  0  0  0  0  0  0  0  0  0  0
    7.2071    5.6195    4.6195 C   0  0  0  0  0  0  0  0  0  0  0  0
    8.3368    4.4025    3.6692 Br  0  0  0  0  0  0  0  0  0  0  0  0
    4.9052    1.3591    2.4407 C   0  0  0  0  0  0  0  0  0  0  0  0
    6.0932    0.8733    3.2359 C   0  0  1  0  0  0  0  0  0  0  0  0
    6.0663    1.3210    4.5194 F   0  0  0  0  0  0  0  0  0  0  0  0
    6.1664   -0.4632    3.3008 F   0  0  0  0  0  0  0  0  0  0  0  0
    7.2588    1.3064    2.7144 F   0  0  0  0  0  0  0  0  0  0  0  0
    4.2249    0.4178    1.6637 C   0  0  0  0  0  0  0  0  0  0  0  0
    0.9806   -0.6297   -1.3132 H   0  0  0  0  0  0  0  0  0  0  0  0
    1.7807    0.9326   -1.6196 H   0  0  0  0  0  0  0  0  0  0  0  0
    0.5990    0.7730   -0.2935 H   0  0  0  0  0  0  0  0  0  0  0  0
    2.2484   -2.1418   -0.5628 H   0  0  0  0  0  0  0  0  0  0  0  0
    2.8979   -1.9877    1.0826 H   0  0  0  0  0  0  0  0  0  0  0  0
    3.9449   -1.6548   -0.3224 H   0  0  0  0  0  0  0  0  0  0  0  0
    1.9795    2.4987    0.1763 H   0  0  0  0  0  0  0  0  0  0  0  0
    3.1663    4.1305    1.5444 H   0  0  0  0  0  0  0  0  0  0  0  0
    5.8891    3.2896    3.8781 H   0  0  0  0  0  0  0  0  0  0  0  0
    4.0794    6.9042    4.7915 H   0  0  0  0  0  0  0  0  0  0  0  0
    5.1768    8.3102    6.5653 H   0  0  0  0  0  0  0  0  0  0  0  0
    8.9017    6.3047    5.7982 H   0  0  0  0  0  0  0  0  0  0  0  0
    4.5571   -0.6152    1.7187 H   0  0  0  0  0  0  0  0  0  0  0  0
  1  2  1  0
  1 25  1  0
  1 26  1  0
  1 27  1  0
  2  3  1  0
  2  4  1  0
  3 28  1  0
  3 29  1  0
  3 30  1  0
  4  5  2  0
  4 24  1  0
  5  6  1  0
  5 31  1  0
  6  7  2  0
  6 32  1  0
  7  8  1  0
  7 19  1  0
  8  9  1  0
  8 33  1  0
  9 10  2  0
  9 11  1  0
 11 12  2  0
 11 17  1  0
 12 13  1  0
 12 34  1  0
 13 14  2  0
 13 35  1  0
 14 15  1  0
 14 16  1  0
 16 17  2  0
 16 36  1  0
 17 18  1  0
 19 20  1  0
 19 24  2  0
 20 21  1  1
 20 22  1  0
 20 23  1  0
 24 37  1  0
M  END

