
     RDKit          3D

 28 30  0  0  0  0  0  0  0  0999 V2000
    1.0776    0.1742    0.1170 N   0  0  0  0  0  0  0  0  0  0  0  0
    2.4488    0.1245    0.0786 C   0  0  0  0  0  0  0  0  0  0  0  0
    3.2194    1.3131    0.0749 C   0  0  0  0  0  0  0  0  0  0  0  0
    4.6048    1.2560    0.0724 C   0  0  0  0  0  0  0  0  0  0  0  0
    5.2824    0.0242    0.0732 C   0  0  0  0  0  0  0  0  0  0  0  0
    4.5194   -1.1648    0.0752 C   0  0  0  0  0  0  0  0  0  0  0  0
    3.1276   -1.1111    0.0782 C   0  0  0  0  0  0  0  0  0  0  0  0
    5.1796   -2.5142    0.0697 C   0  0  0  0  0  0  0  0  0  0  0  0
    4.5131   -3.5404    0.0721 O   0  0  0  0  0  0  0  0  0  0  0  0
    6.6589   -2.5351    0.0708 C   0  0  0  0  0  0  0  0  0  0  0  0
    7.3365   -3.7668    0.0687 C   0  0  0  0  0  0  0  0  0  0  0  0
    8.7218   -3.8240    0.0673 C   0  0  0  0  0  0  0  0  0  0  0  0
    9.4924   -2.6354    0.0685 C   0  0  0  0  0  0  0  0  0  0  0  0
   10.8638   -2.6853    0.1031 N   0  0  0  0  0  0  0  0  0  0  0  0
    8.8138   -1.3998    0.0699 C   0  0  0  0  0  0  0  0  0  0  0  0
    7.4219   -1.3460    0.0714 C   0  0  0  0  0  0  0  0  0  0  0  0
    6.7617    0.0034    0.0712 C   0  0  0  0  0  0  0  0  0  0  0  0
    7.4282    1.0295    0.0607 O   0  0  0  0  0  0  0  0  0  0  0  0
    0.6118    1.0448   -0.1022 H   0  0  0  0  0  0  0  0  0  0  0  0
    0.5542   -0.6676   -0.0845 H   0  0  0  0  0  0  0  0  0  0  0  0
    2.7111    2.2815    0.0766 H   0  0  0  0  0  0  0  0  0  0  0  0
    5.2029    2.1695    0.0694 H   0  0  0  0  0  0  0  0  0  0  0  0
    2.5787   -2.0558    0.0807 H   0  0  0  0  0  0  0  0  0  0  0  0
    6.7383   -4.6804    0.0667 H   0  0  0  0  0  0  0  0  0  0  0  0
    9.2300   -4.7925    0.0677 H   0  0  0  0  0  0  0  0  0  0  0  0
   11.3289   -3.5556   -0.1185 H   0  0  0  0  0  0  0  0  0  0  0  0
   11.3866   -1.8432   -0.0985 H   0  0  0  0  0  0  0  0  0  0  0  0
    9.3626   -0.4551    0.0712 H   0  0  0  0  0  0  0  0  0  0  0  0
  1  2  1  0
  1 19  1  0
  1 20  1  0
  2  3  2  0
  2  7  1  0
  3  4  1  0
  3 21  1  0
  4  5  2  0
  4 22  1  0
  5  6  1  0
  5 17  1  0
  6  7  2  0
  6  8  1  0
  7 23  1  0
  8  9  2  0
  8 10  1  0
 10 11  2  0
 10 16  1  0
 11 12  1  0
 11 24  1  0
 12 13  2  0
 12 25  1  0
 13 14  1  0
 13 15  1  0
 14 26  1  0
 14 27  1  0
 15 16  2  0
 15 28  1  0
 16 17  1  0
 17 18  2  0
M  END

