
     RDKit          3D

 58 60  0  0  0  0  0  0  0  0999 V2000
   10.3075   -0.1716    0.0859 C   0  0  0  0  0  0  0  0  0  0  0  0
    8.7999   -0.3848    0.2286 C   0  0  0  0  0  0  0  0  0  0  0  0
    8.3518   -1.8105   -0.1062 C   0  0  0  0  0  0  0  0  0  0  0  0
    6.8338   -2.0256    0.0374 C   0  0  0  0  0  0  0  0  0  0  0  0
    6.3922   -3.4333   -0.2930 C   0  0  0  0  0  0  0  0  0  0  0  0
    6.3430   -4.4273    0.6964 C   0  0  0  0  0  0  0  0  0  0  0  0
    5.9733   -5.7380    0.3887 C   0  0  0  0  0  0  0  0  0  0  0  0
    5.6444   -6.0818   -0.9266 C   0  0  0  0  0  0  0  0  0  0  0  0
    5.1867   -7.4826   -1.2574 C   0  0  1  0  0  0  0  0  0  0  0  0
    5.5502   -8.3631   -0.2830 F   0  0  0  0  0  0  0  0  0  0  0  0
    3.8141   -7.5318   -1.2838 F   0  0  0  0  0  0  0  0  0  0  0  0
    5.6938   -7.8703   -2.4663 O   0  0  0  0  0  0  0  0  0  0  0  0
    5.5165   -9.1455   -2.9841 C   0  0  0  0  0  0  0  0  0  0  0  0
    4.5613  -10.0666   -2.5422 C   0  0  0  0  0  0  0  0  0  0  0  0
    4.4873  -11.3161   -3.1643 C   0  0  0  0  0  0  0  0  0  0  0  0
    5.3355  -11.6728   -4.2224 C   0  0  0  0  0  0  0  0  0  0  0  0
    5.2082  -13.0135   -4.9106 C   0  0  0  0  0  0  0  0  0  0  0  0
    4.2311  -12.9916   -6.1124 C   0  0  0  0  0  0  0  0  0  0  0  0
    4.1023  -14.3315   -6.8010 C   0  0  0  0  0  0  0  0  0  0  0  0
    3.1115  -15.2501   -6.4268 C   0  0  0  0  0  0  0  0  0  0  0  0
    3.0078  -16.5022   -7.0414 C   0  0  0  0  0  0  0  0  0  0  0  0
    3.9161  -16.8693   -8.0383 C   0  0  0  0  0  0  0  0  0  0  0  0
    3.8829  -18.0666   -8.7159 O   0  0  0  0  0  0  0  0  0  0  0  0
    3.5719  -19.2041   -8.0239 C   0  0  1  0  0  0  0  0  0  0  0  0
    2.2254  -19.3324   -7.8858 F   0  0  0  0  0  0  0  0  0  0  0  0
    4.0009  -20.2404   -8.7500 F   0  0  0  0  0  0  0  0  0  0  0  0
    4.9095  -15.9532   -8.4158 C   0  0  0  0  0  0  0  0  0  0  0  0
    5.7744  -16.2937   -9.3749 F   0  0  0  0  0  0  0  0  0  0  0  0
    5.0017  -14.7050   -7.8135 C   0  0  0  0  0  0  0  0  0  0  0  0
    6.2814  -10.7253   -4.6460 C   0  0  0  0  0  0  0  0  0  0  0  0
    6.3782   -9.4764   -4.0345 C   0  0  0  0  0  0  0  0  0  0  0  0
    5.6885   -5.1026   -1.9268 C   0  0  0  0  0  0  0  0  0  0  0  0
    6.0584   -3.7963   -1.6086 C   0  0  0  0  0  0  0  0  0  0  0  0
   10.5948    0.8626    0.3341 H   0  0  0  0  0  0  0  0  0  0  0  0
   10.6452   -0.3725   -0.9446 H   0  0  0  0  0  0  0  0  0  0  0  0
   10.8725   -0.8433    0.7537 H   0  0  0  0  0  0  0  0  0  0  0  0
    8.2621    0.3273   -0.4237 H   0  0  0  0  0  0  0  0  0  0  0  0
    8.4875   -0.1391    1.2601 H   0  0  0  0  0  0  0  0  0  0  0  0
    8.8815   -2.5285    0.5456 H   0  0  0  0  0  0  0  0  0  0  0  0
    8.6564   -2.0622   -1.1381 H   0  0  0  0  0  0  0  0  0  0  0  0
    6.3066   -1.3119   -0.6188 H   0  0  0  0  0  0  0  0  0  0  0  0
    6.5325   -1.7792    1.0701 H   0  0  0  0  0  0  0  0  0  0  0  0
    6.5958   -4.1713    1.7294 H   0  0  0  0  0  0  0  0  0  0  0  0
    5.9414   -6.4975    1.1713 H   0  0  0  0  0  0  0  0  0  0  0  0
    3.8821   -9.8209   -1.7286 H   0  0  0  0  0  0  0  0  0  0  0  0
    3.7425  -12.0334   -2.8069 H   0  0  0  0  0  0  0  0  0  0  0  0
    4.8644  -13.7734   -4.1895 H   0  0  0  0  0  0  0  0  0  0  0  0
    6.1979  -13.3476   -5.2642 H   0  0  0  0  0  0  0  0  0  0  0  0
    4.5736  -12.2318   -6.8340 H   0  0  0  0  0  0  0  0  0  0  0  0
    3.2415  -12.6597   -5.7586 H   0  0  0  0  0  0  0  0  0  0  0  0
    2.3897  -14.9801   -5.6516 H   0  0  0  0  0  0  0  0  0  0  0  0
    2.2065  -17.1891   -6.7665 H   0  0  0  0  0  0  0  0  0  0  0  0
    4.0252  -19.2259   -7.0155 H   0  0  0  0  0  0  0  0  0  0  0  0
    5.7912  -14.0292   -8.1512 H   0  0  0  0  0  0  0  0  0  0  0  0
    6.9658  -10.9711   -5.4634 H   0  0  0  0  0  0  0  0  0  0  0  0
    7.1215   -8.7437   -4.3543 H   0  0  0  0  0  0  0  0  0  0  0  0
    5.4350   -5.3678   -2.9549 H   0  0  0  0  0  0  0  0  0  0  0  0
    6.0857   -3.0398   -2.3982 H   0  0  0  0  0  0  0  0  0  0  0  0
  1  2  1  0
  1 34  1  0
  1 35  1  0
  1 36  1  0
  2  3  1  0
  2 37  1  0
  2 38  1  0
  3  4  1  0
  3 39  1  0
  3 40  1  0
  4  5  1  0
  4 41  1  0
  4 42  1  0
  5  6  2  0
  5 33  1  0
  6  7  1  0
  6 43  1  0
  7  8  2  0
  7 44  1  0
  8  9  1  0
  8 32  1  0
  9 10  1  1
  9 11  1  0
  9 12  1  0
 12 13  1  0
 13 14  2  0
 13 31  1  0
 14 15  1  0
 14 45  1  0
 15 16  2  0
 15 46  1  0
 16 17  1  0
 16 30  1  0
 17 18  1  0
 17 47  1  0
 17 48  1  0
 18 19  1  0
 18 49  1  0
 18 50  1  0
 19 20  2  0
 19 29  1  0
 20 21  1  0
 20 51  1  0
 21 22  2  0
 21 52  1  0
 22 23  1  0
 22 27  1  0
 23 24  1  0
 24 25  1  0
 24 26  1  0
 24 53  1  1
 27 28  1  0
 27 29  2  0
 29 54  1  0
 30 31  2  0
 30 55  1  0
 31 56  1  0
 32 33  2  0
 32 57  1  0
 33 58  1  0
M  END

