
     RDKit          3D

 48 52  0  0  0  0  0  0  0  0999 V2000
    4.4601    1.9398   -3.1109 O   0  0  0  0  0  0  0  0  0  0  0  0
    4.8677    1.3509   -2.1341 C   0  0  0  0  0  0  0  0  0  0  0  0
    5.1169   -0.1007   -2.0066 C   0  0  0  0  0  0  0  0  0  0  0  0
    5.5702   -0.3984   -0.7647 C   0  0  0  0  0  0  0  0  0  0  0  0
    5.9132   -1.7349   -0.3044 C   0  0  0  0  0  0  0  0  0  0  0  0
    5.8274   -2.8293   -1.0193 N   0  0  0  0  0  0  0  0  0  0  0  0
    6.2108   -3.9264   -0.3168 C   0  0  0  0  0  0  0  0  0  0  0  0
    6.6073   -3.7130    0.9879 C   0  0  0  0  0  0  0  0  0  0  0  0
    7.1183   -4.7327    1.9740 C   0  0  0  0  0  0  0  0  0  0  0  0
    8.5491   -4.9868    1.8789 N   0  0  0  0  0  0  0  0  0  0  0  0
    9.0376   -5.9309    1.0159 C   0  0  0  0  0  0  0  0  0  0  0  0
    8.2988   -6.6367    0.3451 O   0  0  0  0  0  0  0  0  0  0  0  0
   10.5356   -6.0746    0.9540 C   0  0  0  0  0  0  0  0  0  0  0  0
   11.0525   -7.3019    0.5141 C   0  0  0  0  0  0  0  0  0  0  0  0
   12.4301   -7.4885    0.4405 C   0  0  0  0  0  0  0  0  0  0  0  0
   13.3172   -6.4510    0.7622 C   0  0  0  0  0  0  0  0  0  0  0  0
   12.8113   -5.2063    1.1856 C   0  0  0  0  0  0  0  0  0  0  0  0
   11.4197   -5.0410    1.2855 C   0  0  0  0  0  0  0  0  0  0  0  0
   13.6366   -4.0955    1.4412 N   0  0  0  0  0  0  0  0  0  0  0  0
   14.7807   -3.9212    2.2064 C   0  0  0  0  0  0  0  0  0  0  0  0
   15.1444   -2.7859    2.4603 O   0  0  0  0  0  0  0  0  0  0  0  0
   15.5208   -5.1024    2.7699 C   0  0  0  0  0  0  0  0  0  0  0  0
   16.1425   -4.8880    4.0125 C   0  0  0  0  0  0  0  0  0  0  0  0
   16.9229   -5.8760    4.6094 C   0  0  0  0  0  0  0  0  0  0  0  0
   17.1109   -7.0984    3.9576 C   0  0  0  0  0  0  0  0  0  0  0  0
   16.5058   -7.3277    2.7210 C   0  0  0  0  0  0  0  0  0  0  0  0
   15.7095   -6.3400    2.1228 C   0  0  0  0  0  0  0  0  0  0  0  0
   15.0631   -6.6845    0.4877 S   0  0  0  0  0  0  0  0  0  0  0  0
    6.4936   -2.0178    1.3385 S   0  0  0  0  0  0  0  0  0  0  0  0
    5.6860    0.8335    0.1167 C   0  0  0  0  0  0  0  0  0  0  0  0
    5.2234    1.9932   -0.7820 C   0  0  0  0  0  0  0  0  0  0  0  0
    4.9520   -0.8154   -2.8125 H   0  0  0  0  0  0  0  0  0  0  0  0
    6.2060   -4.9127   -0.7855 H   0  0  0  0  0  0  0  0  0  0  0  0
    6.6069   -5.6857    1.7767 H   0  0  0  0  0  0  0  0  0  0  0  0
    6.8831   -4.4295    3.0049 H   0  0  0  0  0  0  0  0  0  0  0  0
    9.1835   -4.4592    2.4635 H   0  0  0  0  0  0  0  0  0  0  0  0
   10.3567   -8.0955    0.2377 H   0  0  0  0  0  0  0  0  0  0  0  0
   12.8411   -8.4460    0.1135 H   0  0  0  0  0  0  0  0  0  0  0  0
   11.0425   -4.0616    1.5919 H   0  0  0  0  0  0  0  0  0  0  0  0
   13.2213   -3.1892    1.2377 H   0  0  0  0  0  0  0  0  0  0  0  0
   16.0113   -3.9144    4.4878 H   0  0  0  0  0  0  0  0  0  0  0  0
   17.3927   -5.6889    5.5778 H   0  0  0  0  0  0  0  0  0  0  0  0
   17.7274   -7.8781    4.4119 H   0  0  0  0  0  0  0  0  0  0  0  0
   16.6443   -8.2800    2.2047 H   0  0  0  0  0  0  0  0  0  0  0  0
    6.7235    0.9591    0.4718 H   0  0  0  0  0  0  0  0  0  0  0  0
    5.0632    0.7222    1.0210 H   0  0  0  0  0  0  0  0  0  0  0  0
    6.0005    2.7574   -0.9404 H   0  0  0  0  0  0  0  0  0  0  0  0
    4.3391    2.5204   -0.3908 H   0  0  0  0  0  0  0  0  0  0  0  0
  1  2  2  0
  2  3  1  0
  2 31  1  0
  3  4  2  0
  3 32  1  0
  4  5  1  0
  4 30  1  0
  5  6  2  0
  5 29  1  0
  6  7  1  0
  7  8  2  0
  7 33  1  0
  8  9  1  0
  8 29  1  0
  9 10  1  0
  9 34  1  0
  9 35  1  0
 10 11  1  0
 10 36  1  0
 11 12  2  0
 11 13  1  0
 13 14  2  0
 13 18  1  0
 14 15  1  0
 14 37  1  0
 15 16  2  0
 15 38  1  0
 16 17  1  0
 16 28  1  0
 17 18  2  0
 17 19  1  0
 18 39  1  0
 19 20  1  0
 19 40  1  0
 20 21  2  0
 20 22  1  0
 22 23  1  0
 22 27  2  0
 23 24  2  0
 23 41  1  0
 24 25  1  0
 24 42  1  0
 25 26  2  0
 25 43  1  0
 26 27  1  0
 26 44  1  0
 27 28  1  0
 30 31  1  0
 30 45  1  0
 30 46  1  0
 31 47  1  0
 31 48  1  0
M  END

