
     RDKit          3D

 34 34  0  0  0  0  0  0  0  0999 V2000
    0.9480    0.5973    0.5953 C   0  0  0  0  0  0  0  0  0  0  0  0
    2.4100    0.2434    0.2841 C   0  0  1  0  0  0  0  0  0  0  0  0
    2.6103   -1.1593   -0.0919 N   0  0  0  0  0  0  0  0  0  0  0  0
    2.9884    1.1572   -0.8082 C   0  0  0  0  0  0  0  0  0  0  0  0
    4.4924    0.9843   -1.0322 C   0  0  0  0  0  0  0  0  0  0  0  0
    5.0132    1.8114   -2.2092 C   0  0  0  0  0  0  0  0  0  0  0  0
    6.4647    1.7764   -2.3622 N   0  0  0  0  0  0  0  0  0  0  0  0
    6.9745    0.4710   -2.7489 C   0  0  0  0  0  0  0  0  0  0  0  0
    6.9691    2.8382   -3.2192 C   0  0  0  0  0  0  0  0  0  0  0  0
    8.4306    3.1301   -2.9809 C   0  0  0  0  0  0  0  0  0  0  0  0
    9.1205    3.1143   -1.7938 C   0  0  0  0  0  0  0  0  0  0  0  0
   10.4902    3.5014   -1.9194 C   0  0  0  0  0  0  0  0  0  0  0  0
   10.8204    3.8101   -3.2137 C   0  0  0  0  0  0  0  0  0  0  0  0
   12.3594    4.3242   -3.8084 Cl  0  0  0  0  0  0  0  0  0  0  0  0
    9.4681    3.6224   -4.2956 S   0  0  0  0  0  0  0  0  0  0  0  0
    0.5429   -0.0584    1.3837 H   0  0  0  0  0  0  0  0  0  0  0  0
    0.3167    0.4725   -0.3021 H   0  0  0  0  0  0  0  0  0  0  0  0
    0.8403    1.6402    0.9374 H   0  0  0  0  0  0  0  0  0  0  0  0
    3.0035    0.4074    1.2030 H   0  0  0  0  0  0  0  0  0  0  0  0
    2.0092   -1.3941   -0.8853 H   0  0  0  0  0  0  0  0  0  0  0  0
    2.3261   -1.7765    0.6692 H   0  0  0  0  0  0  0  0  0  0  0  0
    2.7631    2.2075   -0.5507 H   0  0  0  0  0  0  0  0  0  0  0  0
    2.4449    0.9566   -1.7526 H   0  0  0  0  0  0  0  0  0  0  0  0
    4.6920   -0.0878   -1.1792 H   0  0  0  0  0  0  0  0  0  0  0  0
    5.0449    1.2849   -0.1245 H   0  0  0  0  0  0  0  0  0  0  0  0
    4.7228    2.8649   -2.0549 H   0  0  0  0  0  0  0  0  0  0  0  0
    4.4972    1.4854   -3.1449 H   0  0  0  0  0  0  0  0  0  0  0  0
    6.7018   -0.2896   -2.0042 H   0  0  0  0  0  0  0  0  0  0  0  0
    8.0720    0.4996   -2.8100 H   0  0  0  0  0  0  0  0  0  0  0  0
    6.5849    0.1361   -3.7384 H   0  0  0  0  0  0  0  0  0  0  0  0
    6.3870    3.7512   -3.0030 H   0  0  0  0  0  0  0  0  0  0  0  0
    6.8058    2.6271   -4.3027 H   0  0  0  0  0  0  0  0  0  0  0  0
    8.6479    2.8202   -0.8560 H   0  0  0  0  0  0  0  0  0  0  0  0
   11.2028    3.5504   -1.0957 H   0  0  0  0  0  0  0  0  0  0  0  0
  1  2  1  0
  1 16  1  0
  1 17  1  0
  1 18  1  0
  2  3  1  0
  2  4  1  0
  2 19  1  1
  3 20  1  0
  3 21  1  0
  4  5  1  0
  4 22  1  0
  4 23  1  0
  5  6  1  0
  5 24  1  0
  5 25  1  0
  6  7  1  0
  6 26  1  0
  6 27  1  0
  7  8  1  0
  7  9  1  0
  8 28  1  0
  8 29  1  0
  8 30  1  0
  9 10  1  0
  9 31  1  0
  9 32  1  0
 10 11  2  0
 10 15  1  0
 11 12  1  0
 11 33  1  0
 12 13  2  0
 12 34  1  0
 13 14  1  0
 13 15  1  0
M  END

