
     RDKit          3D

 62 64  0  0  0  0  0  0  0  0999 V2000
    7.9524   -0.3234    2.0022 C   0  0  0  0  0  0  0  0  0  0  0  0
    7.8180   -1.8465    1.9914 C   0  0  0  0  0  0  0  0  0  0  0  0
    6.9003   -2.3687    0.8794 C   0  0  0  0  0  0  0  0  0  0  0  0
    7.3550   -2.0208   -0.4557 N   0  0  0  0  0  0  0  0  0  0  0  0
    8.5201   -2.7374   -0.9456 C   0  0  0  0  0  0  0  0  0  0  0  0
    8.6450   -2.2764   -2.4040 C   0  0  0  0  0  0  0  0  0  0  0  0
    7.1943   -1.9164   -2.8134 C   0  0  0  0  0  0  0  0  0  0  0  0
    6.3619   -2.0993   -1.5124 C   0  0  2  0  0  0  0  0  0  0  0  0
    5.2731   -1.0187   -1.3669 C   0  0  0  0  0  0  0  0  0  0  0  0
    5.4698   -0.0112   -0.7077 O   0  0  0  0  0  0  0  0  0  0  0  0
    4.0986   -1.2132   -2.0611 N   0  0  0  0  0  0  0  0  0  0  0  0
    3.0707   -0.1735   -1.9969 C   0  0  0  0  0  0  0  0  0  0  0  0
    1.8996   -0.5072   -1.0675 C   0  0  0  0  0  0  0  0  0  0  0  0
    1.2346   -1.8713   -1.3064 C   0  0  0  0  0  0  0  0  0  0  0  0
    2.0992   -2.9880   -0.9262 N   0  0  0  0  0  0  0  0  0  0  0  0
    1.5147   -4.0082   -0.0745 C   0  0  0  0  0  0  0  0  0  0  0  0
    0.4916   -4.8942   -0.7468 C   0  0  0  0  0  0  0  0  0  0  0  0
    0.7684   -6.1068   -1.1543 N   0  0  0  0  0  0  0  0  0  0  0  0
   -0.4183   -6.5302   -1.7512 O   0  0  0  0  0  0  0  0  0  0  0  0
   -1.2971   -5.5207   -1.6466 C   0  0  0  0  0  0  0  0  0  0  0  0
   -2.6829   -5.7202   -2.2103 C   0  0  1  0  0  0  0  0  0  0  0  0
   -3.3490   -6.9056   -1.4744 C   0  0  0  0  0  0  0  0  0  0  0  0
   -3.5010   -4.4362   -2.0006 C   0  0  0  0  0  0  0  0  0  0  0  0
   -2.5654   -6.0414   -3.7176 C   0  0  0  0  0  0  0  0  0  0  0  0
   -0.7934   -4.4871   -1.0382 N   0  0  0  0  0  0  0  0  0  0  0  0
    3.0286   -3.5092   -1.9127 C   0  0  0  0  0  0  0  0  0  0  0  0
    3.7152   -2.4282   -2.7662 C   0  0  0  0  0  0  0  0  0  0  0  0
    8.6289    0.0140    2.8042 H   0  0  0  0  0  0  0  0  0  0  0  0
    6.9732    0.1592    2.1519 H   0  0  0  0  0  0  0  0  0  0  0  0
    8.3377    0.0405    1.0385 H   0  0  0  0  0  0  0  0  0  0  0  0
    7.4113   -2.2005    2.9553 H   0  0  0  0  0  0  0  0  0  0  0  0
    8.8153   -2.3138    1.9039 H   0  0  0  0  0  0  0  0  0  0  0  0
    5.9027   -1.9256    1.0208 H   0  0  0  0  0  0  0  0  0  0  0  0
    6.7811   -3.4743    0.9837 H   0  0  0  0  0  0  0  0  0  0  0  0
    8.3706   -3.8441   -0.8982 H   0  0  0  0  0  0  0  0  0  0  0  0
    9.4147   -2.5082   -0.3462 H   0  0  0  0  0  0  0  0  0  0  0  0
    9.0868   -3.0541   -3.0448 H   0  0  0  0  0  0  0  0  0  0  0  0
    9.2909   -1.3886   -2.4687 H   0  0  0  0  0  0  0  0  0  0  0  0
    6.8155   -2.5545   -3.6259 H   0  0  0  0  0  0  0  0  0  0  0  0
    7.1336   -0.8741   -3.1583 H   0  0  0  0  0  0  0  0  0  0  0  0
    5.8885   -3.1070   -1.5248 H   0  0  0  0  0  0  0  0  0  0  0  0
    2.6950   -0.0085   -3.0235 H   0  0  0  0  0  0  0  0  0  0  0  0
    3.5614    0.7485   -1.6613 H   0  0  0  0  0  0  0  0  0  0  0  0
    1.1395    0.2863   -1.1829 H   0  0  0  0  0  0  0  0  0  0  0  0
    2.2471   -0.4751   -0.0220 H   0  0  0  0  0  0  0  0  0  0  0  0
    0.8818   -1.9535   -2.3566 H   0  0  0  0  0  0  0  0  0  0  0  0
    0.3205   -1.9281   -0.6982 H   0  0  0  0  0  0  0  0  0  0  0  0
    1.0330   -3.5251    0.7903 H   0  0  0  0  0  0  0  0  0  0  0  0
    2.3181   -4.6560    0.3100 H   0  0  0  0  0  0  0  0  0  0  0  0
   -3.4420   -6.7020   -0.3960 H   0  0  0  0  0  0  0  0  0  0  0  0
   -2.7685   -7.8317   -1.6002 H   0  0  0  0  0  0  0  0  0  0  0  0
   -4.3599   -7.0742   -1.8776 H   0  0  0  0  0  0  0  0  0  0  0  0
   -3.5815   -4.1836   -0.9332 H   0  0  0  0  0  0  0  0  0  0  0  0
   -4.5161   -4.5731   -2.4047 H   0  0  0  0  0  0  0  0  0  0  0  0
   -3.0366   -3.5786   -2.5093 H   0  0  0  0  0  0  0  0  0  0  0  0
   -1.9698   -6.9507   -3.8879 H   0  0  0  0  0  0  0  0  0  0  0  0
   -2.0906   -5.2120   -4.2652 H   0  0  0  0  0  0  0  0  0  0  0  0
   -3.5681   -6.2008   -4.1442 H   0  0  0  0  0  0  0  0  0  0  0  0
    2.5570   -4.2266   -2.6236 H   0  0  0  0  0  0  0  0  0  0  0  0
    3.7956   -4.0888   -1.3688 H   0  0  0  0  0  0  0  0  0  0  0  0
    3.0374   -2.1204   -3.5781 H   0  0  0  0  0  0  0  0  0  0  0  0
    4.5813   -2.8841   -3.2660 H   0  0  0  0  0  0  0  0  0  0  0  0
  1  2  1  0
  1 28  1  0
  1 29  1  0
  1 30  1  0
  2  3  1  0
  2 31  1  0
  2 32  1  0
  3  4  1  0
  3 33  1  0
  3 34  1  0
  4  5  1  0
  4  8  1  0
  5  6  1  0
  5 35  1  0
  5 36  1  0
  6  7  1  0
  6 37  1  0
  6 38  1  0
  7  8  1  0
  7 39  1  0
  7 40  1  0
  8  9  1  0
  8 41  1  6
  9 10  2  0
  9 11  1  0
 11 12  1  0
 11 27  1  0
 12 13  1  0
 12 42  1  0
 12 43  1  0
 13 14  1  0
 13 44  1  0
 13 45  1  0
 14 15  1  0
 14 46  1  0
 14 47  1  0
 15 16  1  0
 15 26  1  0
 16 17  1  0
 16 48  1  0
 16 49  1  0
 17 18  2  0
 17 25  1  0
 18 19  1  0
 19 20  1  0
 20 21  1  0
 20 25  2  0
 21 22  1  1
 21 23  1  0
 21 24  1  0
 22 50  1  0
 22 51  1  0
 22 52  1  0
 23 53  1  0
 23 54  1  0
 23 55  1  0
 24 56  1  0
 24 57  1  0
 24 58  1  0
 26 27  1  0
 26 59  1  0
 26 60  1  0
 27 61  1  0
 27 62  1  0
M  END

