
     RDKit          3D

 41 41  0  0  0  0  0  0  0  0999 V2000
    4.9793    2.0613   -2.3603 C   0  0  0  0  0  0  0  0  0  0  0  0
    4.5676    1.0017   -1.3441 C   0  0  0  0  0  0  0  0  0  0  0  0
    4.9387    1.4228    0.0057 N   0  0  0  0  0  0  0  0  0  0  0  0
    4.5056    0.6110    1.1455 C   0  0  1  0  0  0  0  0  0  0  0  0
    3.0121    0.5103    1.1781 C   0  0  0  0  0  0  0  0  0  0  0  0
    1.8531    0.4710    1.1558 N   0  0  0  0  0  0  0  0  0  0  0  0
    5.0912   -0.8229    1.0377 C   0  0  0  0  0  0  0  0  0  0  0  0
    4.7989   -1.7444    2.2218 C   0  0  0  0  0  0  0  0  0  0  0  0
    4.9442    1.3405    2.4464 C   0  0  0  0  0  0  0  0  0  0  0  0
    6.4574    1.4832    2.6221 C   0  0  0  0  0  0  0  0  0  0  0  0
    6.8196    2.3676    3.8072 C   0  0  0  0  0  0  0  0  0  0  0  0
    8.2252    2.4031    3.9266 O   0  0  0  0  0  0  0  0  0  0  0  0
    8.7219    3.1259    5.0243 C   0  0  1  0  0  0  0  0  0  0  0  0
   10.2208    2.8777    5.2009 C   0  0  0  0  0  0  0  0  0  0  0  0
   10.6748    4.1120    5.9857 C   0  0  0  0  0  0  0  0  0  0  0  0
    9.7269    5.1452    5.7056 O   0  0  0  0  0  0  0  0  0  0  0  0
    8.6990    4.6589    4.8649 C   0  0  0  0  0  0  0  0  0  0  0  0
    4.7400    1.7340   -3.3836 H   0  0  0  0  0  0  0  0  0  0  0  0
    6.0605    2.2621   -2.3012 H   0  0  0  0  0  0  0  0  0  0  0  0
    4.4467    3.0118   -2.1846 H   0  0  0  0  0  0  0  0  0  0  0  0
    5.0860    0.0585   -1.5798 H   0  0  0  0  0  0  0  0  0  0  0  0
    3.4798    0.7972   -1.4399 H   0  0  0  0  0  0  0  0  0  0  0  0
    4.6320    2.3846    0.1529 H   0  0  0  0  0  0  0  0  0  0  0  0
    6.1763   -0.7134    0.8839 H   0  0  0  0  0  0  0  0  0  0  0  0
    4.6942   -1.2866    0.1217 H   0  0  0  0  0  0  0  0  0  0  0  0
    5.2833   -1.4019    3.1493 H   0  0  0  0  0  0  0  0  0  0  0  0
    5.1736   -2.7584    2.0137 H   0  0  0  0  0  0  0  0  0  0  0  0
    3.7170   -1.8254    2.4147 H   0  0  0  0  0  0  0  0  0  0  0  0
    4.5029    0.8195    3.3109 H   0  0  0  0  0  0  0  0  0  0  0  0
    4.4754    2.3412    2.4343 H   0  0  0  0  0  0  0  0  0  0  0  0
    6.9014    1.9051    1.7081 H   0  0  0  0  0  0  0  0  0  0  0  0
    6.9297    0.4998    2.7783 H   0  0  0  0  0  0  0  0  0  0  0  0
    6.3656    1.9723    4.7412 H   0  0  0  0  0  0  0  0  0  0  0  0
    6.4055    3.3869    3.6618 H   0  0  0  0  0  0  0  0  0  0  0  0
    8.1740    2.8418    5.9469 H   0  0  0  0  0  0  0  0  0  0  0  0
   10.6745    2.8453    4.1972 H   0  0  0  0  0  0  0  0  0  0  0  0
   10.4466    1.9284    5.7081 H   0  0  0  0  0  0  0  0  0  0  0  0
   11.6869    4.4470    5.6989 H   0  0  0  0  0  0  0  0  0  0  0  0
   10.6848    3.9230    7.0755 H   0  0  0  0  0  0  0  0  0  0  0  0
    8.8845    4.9034    3.7980 H   0  0  0  0  0  0  0  0  0  0  0  0
    7.7481    5.1280    5.1660 H   0  0  0  0  0  0  0  0  0  0  0  0
  1  2  1  0
  1 18  1  0
  1 19  1  0
  1 20  1  0
  2  3  1  0
  2 21  1  0
  2 22  1  0
  3  4  1  0
  3 23  1  0
  4  5  1  1
  4  7  1  0
  4  9  1  0
  5  6  3  0
  7  8  1  0
  7 24  1  0
  7 25  1  0
  8 26  1  0
  8 27  1  0
  8 28  1  0
  9 10  1  0
  9 29  1  0
  9 30  1  0
 10 11  1  0
 10 31  1  0
 10 32  1  0
 11 12  1  0
 11 33  1  0
 11 34  1  0
 12 13  1  0
 13 14  1  0
 13 17  1  0
 13 35  1  1
 14 15  1  0
 14 36  1  0
 14 37  1  0
 15 16  1  0
 15 38  1  0
 15 39  1  0
 16 17  1  0
 17 40  1  0
 17 41  1  0
M  END

