
     RDKit          3D

 41 43  0  0  0  0  0  0  0  0999 V2000
   -2.8595    0.7124   -0.3523 C   0  0  0  0  0  0  0  0  0  0  0  0
   -2.5283   -0.5402   -1.1707 C   0  0  0  0  0  0  0  0  0  0  0  0
   -0.9893   -0.5889   -1.1467 C   0  0  0  0  0  0  0  0  0  0  0  0
   -0.5443    0.0498    0.2193 C   0  0  2  0  0  0  0  0  0  0  0  0
   -1.8719    0.6133    0.8175 C   0  0  0  0  0  0  0  0  0  0  0  0
    0.4910    1.1800    0.0019 C   0  0  0  0  0  0  0  0  0  0  0  0
    1.8623    0.6368   -0.4339 C   0  0  0  0  0  0  0  0  0  0  0  0
    2.4276   -0.3410    0.4911 N   0  0  0  0  0  0  0  0  0  0  0  0
    3.0501    0.2050    1.6921 C   0  0  0  0  0  0  0  0  0  0  0  0
    4.2034   -0.6558    2.2123 C   0  0  1  0  0  0  0  0  0  0  0  0
    5.3913   -0.8204    1.2538 C   0  0  0  0  0  0  0  0  0  0  0  0
    6.5097   -1.2331    2.2112 C   0  0  0  0  0  0  0  0  0  0  0  0
    6.2306   -0.5827    3.4479 O   0  0  0  0  0  0  0  0  0  0  0  0
    4.9018   -0.0801    3.4553 C   0  0  0  0  0  0  0  0  0  0  0  0
    1.4935   -1.4430    0.7138 C   0  0  0  0  0  0  0  0  0  0  0  0
    0.0922   -0.9935    1.1673 C   0  0  0  0  0  0  0  0  0  0  0  0
   -3.9116    0.7640   -0.0293 H   0  0  0  0  0  0  0  0  0  0  0  0
   -2.6594    1.6181   -0.9519 H   0  0  0  0  0  0  0  0  0  0  0  0
   -2.9411   -0.5263   -2.1921 H   0  0  0  0  0  0  0  0  0  0  0  0
   -2.9471   -1.4291   -0.6666 H   0  0  0  0  0  0  0  0  0  0  0  0
   -0.5918    0.0034   -1.9878 H   0  0  0  0  0  0  0  0  0  0  0  0
   -0.6051   -1.6119   -1.2824 H   0  0  0  0  0  0  0  0  0  0  0  0
   -1.7180    1.5697    1.3426 H   0  0  0  0  0  0  0  0  0  0  0  0
   -2.2687   -0.0980    1.5630 H   0  0  0  0  0  0  0  0  0  0  0  0
    0.6122    1.7409    0.9460 H   0  0  0  0  0  0  0  0  0  0  0  0
    0.1158    1.9029   -0.7438 H   0  0  0  0  0  0  0  0  0  0  0  0
    2.5801    1.4631   -0.5620 H   0  0  0  0  0  0  0  0  0  0  0  0
    1.7671    0.1541   -1.4242 H   0  0  0  0  0  0  0  0  0  0  0  0
    2.3282    0.3770    2.5218 H   0  0  0  0  0  0  0  0  0  0  0  0
    3.4558    1.1991    1.4376 H   0  0  0  0  0  0  0  0  0  0  0  0
    3.8212   -1.6606    2.4674 H   0  0  0  0  0  0  0  0  0  0  0  0
    5.6241    0.1488    0.7787 H   0  0  0  0  0  0  0  0  0  0  0  0
    5.2049   -1.5484    0.4520 H   0  0  0  0  0  0  0  0  0  0  0  0
    7.5135   -0.9330    1.8659 H   0  0  0  0  0  0  0  0  0  0  0  0
    6.5218   -2.3321    2.3572 H   0  0  0  0  0  0  0  0  0  0  0  0
    4.9185    1.0291    3.4154 H   0  0  0  0  0  0  0  0  0  0  0  0
    4.4052   -0.3683    4.3984 H   0  0  0  0  0  0  0  0  0  0  0  0
    1.9226   -2.1413    1.4495 H   0  0  0  0  0  0  0  0  0  0  0  0
    1.4068   -2.0126   -0.2295 H   0  0  0  0  0  0  0  0  0  0  0  0
    0.1556   -0.5572    2.1805 H   0  0  0  0  0  0  0  0  0  0  0  0
   -0.5683   -1.8746    1.2543 H   0  0  0  0  0  0  0  0  0  0  0  0
  1  2  1  0
  1  5  1  0
  1 17  1  0
  1 18  1  0
  2  3  1  0
  2 19  1  0
  2 20  1  0
  4  3  1  6
  3 21  1  0
  3 22  1  0
  4  5  1  0
  4  6  1  0
  4 16  1  0
  5 23  1  0
  5 24  1  0
  6  7  1  0
  6 25  1  0
  6 26  1  0
  7  8  1  0
  7 27  1  0
  7 28  1  0
  8  9  1  0
  8 15  1  0
  9 10  1  0
  9 29  1  0
  9 30  1  0
 10 11  1  0
 10 14  1  0
 10 31  1  1
 11 12  1  0
 11 32  1  0
 11 33  1  0
 12 13  1  0
 12 34  1  0
 12 35  1  0
 13 14  1  0
 14 36  1  0
 14 37  1  0
 15 16  1  0
 15 38  1  0
 15 39  1  0
 16 40  1  0
 16 41  1  0
M  END

