
     RDKit          3D

 46 47  0  0  0  0  0  0  0  0999 V2000
    2.8883    0.3563    1.7097 C   0  0  0  0  0  0  0  0  0  0  0  0
    2.5733   -0.0482    0.2661 C   0  0  2  0  0  0  0  0  0  0  0  0
    1.4794   -0.2057    0.2097 H   0  0  0  0  0  0  0  0  0  0  0  0
    3.2348   -1.3868   -0.1129 C   0  0  0  0  0  0  0  0  0  0  0  0
    2.8638   -1.8372   -1.5320 C   0  0  0  0  0  0  0  0  0  0  0  0
    3.1562   -0.7418   -2.5672 C   0  0  0  0  0  0  0  0  0  0  0  0
    2.5041    0.6020   -2.2004 C   0  0  1  0  0  0  0  0  0  0  0  0
    2.8337    1.3801   -2.9048 H   0  0  0  0  0  0  0  0  0  0  0  0
    1.0534    0.5186   -2.3659 N   0  0  0  0  0  0  0  0  0  0  0  0
    0.3109    1.5636   -2.8144 C   0  0  0  0  0  0  0  0  0  0  0  0
    0.7595    2.6649   -3.0873 O   0  0  0  0  0  0  0  0  0  0  0  0
   -1.1974    1.2805   -2.9477 C   0  0  0  0  0  0  0  0  0  0  0  0
   -1.5099    0.3068   -3.9608 O   0  0  0  0  0  0  0  0  0  0  0  0
   -1.4977   -0.9917   -3.6311 C   0  0  0  0  0  0  0  0  0  0  0  0
   -1.1546   -1.4024   -2.5395 O   0  0  0  0  0  0  0  0  0  0  0  0
   -1.9476   -1.8753   -4.7478 C   0  0  0  0  0  0  0  0  0  0  0  0
   -1.9940   -3.2619   -4.5129 C   0  0  0  0  0  0  0  0  0  0  0  0
   -2.4075   -4.1257   -5.5204 C   0  0  0  0  0  0  0  0  0  0  0  0
   -2.7776   -3.6133   -6.7760 C   0  0  0  0  0  0  0  0  0  0  0  0
   -3.2195   -4.5368   -7.8563 C   0  0  0  0  0  0  0  0  0  0  0  0
   -3.2904   -5.7376   -7.7415 O   0  0  0  0  0  0  0  0  0  0  0  0
   -2.7298   -2.2310   -7.0092 C   0  0  0  0  0  0  0  0  0  0  0  0
   -2.3178   -1.3606   -6.0005 C   0  0  0  0  0  0  0  0  0  0  0  0
    2.8955    1.0638   -0.7683 C   0  0  2  0  0  0  0  0  0  0  0  0
    2.2490    1.9289   -0.5406 H   0  0  0  0  0  0  0  0  0  0  0  0
    4.3447    1.5710   -0.7249 C   0  0  0  0  0  0  0  0  0  0  0  0
    3.9730    0.4449    1.8842 H   0  0  0  0  0  0  0  0  0  0  0  0
    2.5043   -0.3946    2.4192 H   0  0  0  0  0  0  0  0  0  0  0  0
    2.4282    1.3248    1.9666 H   0  0  0  0  0  0  0  0  0  0  0  0
    2.9431   -2.1610    0.6174 H   0  0  0  0  0  0  0  0  0  0  0  0
    4.3331   -1.2924   -0.0312 H   0  0  0  0  0  0  0  0  0  0  0  0
    1.7919   -2.1074   -1.5624 H   0  0  0  0  0  0  0  0  0  0  0  0
    3.4084   -2.7585   -1.7979 H   0  0  0  0  0  0  0  0  0  0  0  0
    2.8201   -1.0497   -3.5711 H   0  0  0  0  0  0  0  0  0  0  0  0
    4.2462   -0.5902   -2.6377 H   0  0  0  0  0  0  0  0  0  0  0  0
    0.5593   -0.3350   -2.1166 H   0  0  0  0  0  0  0  0  0  0  0  0
   -1.6715    2.2112   -3.2764 H   0  0  0  0  0  0  0  0  0  0  0  0
   -1.6175    0.9491   -1.9853 H   0  0  0  0  0  0  0  0  0  0  0  0
   -1.7012   -3.6356   -3.5301 H   0  0  0  0  0  0  0  0  0  0  0  0
   -2.4536   -5.2055   -5.3637 H   0  0  0  0  0  0  0  0  0  0  0  0
   -3.4925   -4.0302   -8.8185 H   0  0  0  0  0  0  0  0  0  0  0  0
   -3.0183   -1.8375   -7.9884 H   0  0  0  0  0  0  0  0  0  0  0  0
   -2.2775   -0.2849   -6.1736 H   0  0  0  0  0  0  0  0  0  0  0  0
    4.5075    2.3344   -1.5026 H   0  0  0  0  0  0  0  0  0  0  0  0
    5.0855    0.7722   -0.8869 H   0  0  0  0  0  0  0  0  0  0  0  0
    4.5756    2.0401    0.2433 H   0  0  0  0  0  0  0  0  0  0  0  0
  1  2  1  0
  1 27  1  0
  1 28  1  0
  1 29  1  0
  2  3  1  1
  2  4  1  0
  2 24  1  0
  4  5  1  0
  4 30  1  0
  4 31  1  0
  5  6  1  0
  5 32  1  0
  5 33  1  0
  6  7  1  0
  6 34  1  0
  6 35  1  0
  7  8  1  6
  7  9  1  0
  7 24  1  0
  9 10  1  0
  9 36  1  0
 10 11  2  0
 10 12  1  0
 12 13  1  0
 12 37  1  0
 12 38  1  0
 13 14  1  0
 14 15  2  0
 14 16  1  0
 16 17  2  0
 16 23  1  0
 17 18  1  0
 17 39  1  0
 18 19  2  0
 18 40  1  0
 19 20  1  0
 19 22  1  0
 20 21  2  0
 20 41  1  0
 22 23  2  0
 22 42  1  0
 23 43  1  0
 24 25  1  1
 24 26  1  0
 26 44  1  0
 26 45  1  0
 26 46  1  0
M  END

