
     RDKit          3D

 49 51  0  0  0  0  0  0  0  0999 V2000
    1.0475   -0.3518    0.0551 C   0  0  0  0  0  0  0  0  0  0  0  0
    2.5272    0.0464    0.1552 C   0  0  1  0  0  0  0  0  0  0  0  0
    2.8926    0.9853   -1.0056 C   0  0  0  0  0  0  0  0  0  0  0  0
    2.9384    0.6033    1.5596 C   0  0  1  0  0  0  0  0  0  0  0  0
    2.2772    1.9574    1.8628 C   0  0  0  0  0  0  0  0  0  0  0  0
    2.5789   -0.4042    2.6876 C   0  0  0  0  0  0  0  0  0  0  0  0
    3.1576   -1.7256    2.4578 N   0  0  0  0  0  0  0  0  0  0  0  0
    4.4096    0.7457    1.5208 N   0  0  0  0  0  0  0  0  0  0  0  0
    5.1961    1.2207    2.5302 C   0  0  0  0  0  0  0  0  0  0  0  0
    4.7699    1.7679    3.5416 O   0  0  0  0  0  0  0  0  0  0  0  0
    6.6749    1.0383    2.3080 C   0  0  1  0  0  0  0  0  0  0  0  0
    7.6031    2.1071    2.8454 C   0  0  0  0  0  0  0  0  0  0  0  0
    7.5275    0.7732    3.5329 C   0  0  2  0  0  0  0  0  0  0  0  0
    8.6624   -0.2065    3.5145 C   0  0  0  0  0  0  0  0  0  0  0  0
    8.6428   -1.3200    2.6924 C   0  0  0  0  0  0  0  0  0  0  0  0
    9.7027   -2.2607    2.6864 C   0  0  0  0  0  0  0  0  0  0  0  0
   10.7875   -2.0893    3.5158 C   0  0  0  0  0  0  0  0  0  0  0  0
   10.8554   -0.9690    4.3912 C   0  0  0  0  0  0  0  0  0  0  0  0
   11.9613   -0.7747    5.2658 C   0  0  0  0  0  0  0  0  0  0  0  0
   12.0151    0.3105    6.1146 C   0  0  0  0  0  0  0  0  0  0  0  0
   10.9587    1.2539    6.1232 C   0  0  0  0  0  0  0  0  0  0  0  0
    9.8729    1.0963    5.2856 C   0  0  0  0  0  0  0  0  0  0  0  0
    9.7827   -0.0127    4.3961 C   0  0  0  0  0  0  0  0  0  0  0  0
    0.8401   -0.7777   -0.9396 H   0  0  0  0  0  0  0  0  0  0  0  0
    0.3806    0.5163    0.1807 H   0  0  0  0  0  0  0  0  0  0  0  0
    0.7533   -1.1071    0.7997 H   0  0  0  0  0  0  0  0  0  0  0  0
    3.1188   -0.8803    0.0347 H   0  0  0  0  0  0  0  0  0  0  0  0
    2.2498    1.8799   -1.0194 H   0  0  0  0  0  0  0  0  0  0  0  0
    2.7570    0.4709   -1.9705 H   0  0  0  0  0  0  0  0  0  0  0  0
    3.9360    1.3296   -0.9506 H   0  0  0  0  0  0  0  0  0  0  0  0
    1.1807    1.8662    1.8389 H   0  0  0  0  0  0  0  0  0  0  0  0
    2.5769    2.7189    1.1284 H   0  0  0  0  0  0  0  0  0  0  0  0
    2.5810    2.3130    2.8550 H   0  0  0  0  0  0  0  0  0  0  0  0
    1.4796   -0.4126    2.8225 H   0  0  0  0  0  0  0  0  0  0  0  0
    2.9996    0.0085    3.6158 H   0  0  0  0  0  0  0  0  0  0  0  0
    2.5226   -2.3268    1.9341 H   0  0  0  0  0  0  0  0  0  0  0  0
    3.3362   -2.1993    3.3411 H   0  0  0  0  0  0  0  0  0  0  0  0
    4.8771    0.1230    0.8727 H   0  0  0  0  0  0  0  0  0  0  0  0
    6.9762    0.5593    1.3726 H   0  0  0  0  0  0  0  0  0  0  0  0
    7.1277    2.9566    3.3424 H   0  0  0  0  0  0  0  0  0  0  0  0
    8.4935    2.3330    2.2525 H   0  0  0  0  0  0  0  0  0  0  0  0
    6.9495    0.7966    4.4649 H   0  0  0  0  0  0  0  0  0  0  0  0
    7.7837   -1.4869    2.0386 H   0  0  0  0  0  0  0  0  0  0  0  0
    9.6488   -3.1258    2.0204 H   0  0  0  0  0  0  0  0  0  0  0  0
   11.6087   -2.8113    3.5175 H   0  0  0  0  0  0  0  0  0  0  0  0
   12.7726   -1.5079    5.2533 H   0  0  0  0  0  0  0  0  0  0  0  0
   12.8705    0.4457    6.7814 H   0  0  0  0  0  0  0  0  0  0  0  0
   11.0054    2.1129    6.7975 H   0  0  0  0  0  0  0  0  0  0  0  0
    9.0692    1.8336    5.2998 H   0  0  0  0  0  0  0  0  0  0  0  0
  1  2  1  0
  1 24  1  0
  1 25  1  0
  1 26  1  0
  2  3  1  0
  2  4  1  0
  2 27  1  6
  3 28  1  0
  3 29  1  0
  3 30  1  0
  4  5  1  0
  4  6  1  0
  4  8  1  6
  5 31  1  0
  5 32  1  0
  5 33  1  0
  6  7  1  0
  6 34  1  0
  6 35  1  0
  7 36  1  0
  7 37  1  0
  8  9  1  0
  8 38  1  0
  9 10  2  0
  9 11  1  0
 11 12  1  0
 11 13  1  0
 11 39  1  6
 12 13  1  0
 12 40  1  0
 12 41  1  0
 13 14  1  0
 13 42  1  1
 14 15  2  0
 14 23  1  0
 15 16  1  0
 15 43  1  0
 16 17  2  0
 16 44  1  0
 17 18  1  0
 17 45  1  0
 18 19  1  0
 18 23  2  0
 19 20  2  0
 19 46  1  0
 20 21  1  0
 20 47  1  0
 21 22  2  0
 21 48  1  0
 22 23  1  0
 22 49  1  0
M  END

