
     RDKit          3D

 42 43  0  0  0  0  0  0  0  0999 V2000
    2.3211    0.0885    2.2724 C   0  0  0  0  0  0  0  0  0  0  0  0
    2.3268   -0.2474    0.7692 C   0  0  1  0  0  0  0  0  0  0  0  0
    0.9157   -0.5585    0.2586 C   0  0  0  0  0  0  0  0  0  0  0  0
    2.9998    0.7658   -0.0750 N   0  0  0  0  0  0  0  0  0  0  0  0
    2.5090    2.1386    0.0911 C   0  0  0  0  0  0  0  0  0  0  0  0
    2.5580    2.9859   -1.1652 C   0  0  1  0  0  0  0  0  0  0  0  0
    1.3924    3.0135   -2.1156 C   0  0  0  0  0  0  0  0  0  0  0  0
    1.6897    4.2158   -1.2518 C   0  0  0  0  0  0  0  0  0  0  0  0
    4.4421    0.6602   -0.0912 C   0  0  0  0  0  0  0  0  0  0  0  0
    5.1474   -0.2280   -1.1957 C   0  0  1  0  0  0  0  0  0  0  0  0
    6.5902   -0.2660   -0.9206 N   0  0  0  0  0  0  0  0  0  0  0  0
    4.6682   -1.6258   -1.1138 C   0  0  0  0  0  0  0  0  0  0  0  0
    4.3000   -2.7209   -1.0257 N   0  0  0  0  0  0  0  0  0  0  0  0
    4.8835    0.2945   -2.6219 C   0  0  0  0  0  0  0  0  0  0  0  0
    3.5863    0.2734   -3.1582 C   0  0  0  0  0  0  0  0  0  0  0  0
    3.3455    0.7451   -4.4508 C   0  0  0  0  0  0  0  0  0  0  0  0
    4.3939    1.2508   -5.2253 C   0  0  0  0  0  0  0  0  0  0  0  0
    5.6883    1.2677   -4.7004 C   0  0  0  0  0  0  0  0  0  0  0  0
    5.9338    0.7828   -3.4120 C   0  0  0  0  0  0  0  0  0  0  0  0
    1.9512   -0.7690    2.8563 H   0  0  0  0  0  0  0  0  0  0  0  0
    1.6694    0.9475    2.4992 H   0  0  0  0  0  0  0  0  0  0  0  0
    3.3319    0.3266    2.6423 H   0  0  0  0  0  0  0  0  0  0  0  0
    2.9087   -1.1717    0.6446 H   0  0  0  0  0  0  0  0  0  0  0  0
    0.2429    0.3108    0.3442 H   0  0  0  0  0  0  0  0  0  0  0  0
    0.4682   -1.3762    0.8454 H   0  0  0  0  0  0  0  0  0  0  0  0
    0.9410   -0.8681   -0.7966 H   0  0  0  0  0  0  0  0  0  0  0  0
    3.0562    2.6668    0.9032 H   0  0  0  0  0  0  0  0  0  0  0  0
    1.4610    2.0889    0.4222 H   0  0  0  0  0  0  0  0  0  0  0  0
    3.5495    3.0657   -1.6239 H   0  0  0  0  0  0  0  0  0  0  0  0
    0.5162    2.4045   -1.8714 H   0  0  0  0  0  0  0  0  0  0  0  0
    1.6053    3.0801   -3.1858 H   0  0  0  0  0  0  0  0  0  0  0  0
    1.0160    4.4253   -0.4142 H   0  0  0  0  0  0  0  0  0  0  0  0
    2.0971    5.1131   -1.7262 H   0  0  0  0  0  0  0  0  0  0  0  0
    4.8408    0.2929    0.8788 H   0  0  0  0  0  0  0  0  0  0  0  0
    4.8783    1.6606   -0.2390 H   0  0  0  0  0  0  0  0  0  0  0  0
    6.7705   -0.7848   -0.0618 H   0  0  0  0  0  0  0  0  0  0  0  0
    6.9321    0.6835   -0.7663 H   0  0  0  0  0  0  0  0  0  0  0  0
    2.7624   -0.1103   -2.5570 H   0  0  0  0  0  0  0  0  0  0  0  0
    2.3308    0.7112   -4.8555 H   0  0  0  0  0  0  0  0  0  0  0  0
    4.2044    1.6180   -6.2372 H   0  0  0  0  0  0  0  0  0  0  0  0
    6.5202    1.6446   -5.3012 H   0  0  0  0  0  0  0  0  0  0  0  0
    6.9546    0.7525   -3.0309 H   0  0  0  0  0  0  0  0  0  0  0  0
  1  2  1  0
  1 20  1  0
  1 21  1  0
  1 22  1  0
  2  3  1  0
  2  4  1  0
  2 23  1  1
  3 24  1  0
  3 25  1  0
  3 26  1  0
  4  5  1  0
  4  9  1  0
  5  6  1  0
  5 27  1  0
  5 28  1  0
  6  7  1  0
  6  8  1  0
  6 29  1  6
  7  8  1  0
  7 30  1  0
  7 31  1  0
  8 32  1  0
  8 33  1  0
  9 10  1  0
  9 34  1  0
  9 35  1  0
 10 11  1  0
 10 12  1  6
 10 14  1  0
 11 36  1  0
 11 37  1  0
 12 13  3  0
 14 15  2  0
 14 19  1  0
 15 16  1  0
 15 38  1  0
 16 17  2  0
 16 39  1  0
 17 18  1  0
 17 40  1  0
 18 19  2  0
 18 41  1  0
 19 42  1  0
M  END

