
     RDKit          3D

 39 41  0  0  0  0  0  0  0  0999 V2000
    3.4576    1.4227    1.4631 C   0  0  0  0  0  0  0  0  0  0  0  0
    2.8373    0.4927    0.4139 C   0  0  1  0  0  0  0  0  0  0  0  0
    3.6498    0.5504   -0.8842 C   0  0  0  0  0  0  0  0  0  0  0  0
    2.7416   -0.8757    0.9256 N   0  0  0  0  0  0  0  0  0  0  0  0
    1.9627   -1.0363    2.1642 C   0  0  0  0  0  0  0  0  0  0  0  0
    1.5734   -2.5348    2.2076 C   0  0  0  0  0  0  0  0  0  0  0  0
    2.1810   -3.1304    0.9138 C   0  0  2  0  0  0  0  0  0  0  0  0
    1.5778   -3.9518    0.5103 H   0  0  0  0  0  0  0  0  0  0  0  0
    3.5303   -3.6398    1.1085 N   0  0  0  0  0  0  0  0  0  0  0  0
    3.8503   -4.9428    1.2933 C   0  0  0  0  0  0  0  0  0  0  0  0
    2.8836   -5.8699    1.2279 N   0  0  0  0  0  0  0  0  0  0  0  0
    3.2072   -7.1630    1.3944 C   0  0  0  0  0  0  0  0  0  0  0  0
    4.4017   -7.6890    1.6332 N   0  0  0  0  0  0  0  0  0  0  0  0
    5.3644   -6.7560    1.7000 C   0  0  0  0  0  0  0  0  0  0  0  0
    5.1899   -5.3640    1.5426 C   0  0  0  0  0  0  0  0  0  0  0  0
    6.5015   -4.8262    1.6988 C   0  0  0  0  0  0  0  0  0  0  0  0
    7.3794   -5.7883    1.9279 N   0  0  0  0  0  0  0  0  0  0  0  0
    6.6937   -6.9552    1.9292 N   0  0  0  0  0  0  0  0  0  0  0  0
    7.3618   -8.2177    2.1509 C   0  0  0  0  0  0  0  0  0  0  0  0
    2.2383   -1.8975    0.0092 C   0  0  0  0  0  0  0  0  0  0  0  0
    3.5544    2.4419    1.0588 H   0  0  0  0  0  0  0  0  0  0  0  0
    4.4618    1.0655    1.7453 H   0  0  0  0  0  0  0  0  0  0  0  0
    2.8490    1.4888    2.3769 H   0  0  0  0  0  0  0  0  0  0  0  0
    1.8109    0.8740    0.1887 H   0  0  0  0  0  0  0  0  0  0  0  0
    4.6558    0.1266   -0.7289 H   0  0  0  0  0  0  0  0  0  0  0  0
    3.7648    1.5952   -1.2111 H   0  0  0  0  0  0  0  0  0  0  0  0
    3.1693    0.0022   -1.7079 H   0  0  0  0  0  0  0  0  0  0  0  0
    1.0496   -0.4016    2.1494 H   0  0  0  0  0  0  0  0  0  0  0  0
    2.5522   -0.7275    3.0410 H   0  0  0  0  0  0  0  0  0  0  0  0
    0.4795   -2.6540    2.1965 H   0  0  0  0  0  0  0  0  0  0  0  0
    1.9498   -3.0547    3.0993 H   0  0  0  0  0  0  0  0  0  0  0  0
    4.2503   -2.9374    1.2370 H   0  0  0  0  0  0  0  0  0  0  0  0
    2.3700   -7.8690    1.3251 H   0  0  0  0  0  0  0  0  0  0  0  0
    6.8393   -3.7904    1.6534 H   0  0  0  0  0  0  0  0  0  0  0  0
    7.8490   -8.2275    3.1380 H   0  0  0  0  0  0  0  0  0  0  0  0
    8.1245   -8.3911    1.3763 H   0  0  0  0  0  0  0  0  0  0  0  0
    6.6021   -9.0087    2.1054 H   0  0  0  0  0  0  0  0  0  0  0  0
    1.2209   -1.6638   -0.3832 H   0  0  0  0  0  0  0  0  0  0  0  0
    2.9064   -2.0485   -0.8498 H   0  0  0  0  0  0  0  0  0  0  0  0
  1  2  1  0
  1 21  1  0
  1 22  1  0
  1 23  1  0
  2  3  1  0
  2  4  1  0
  2 24  1  6
  3 25  1  0
  3 26  1  0
  3 27  1  0
  4  5  1  0
  4 20  1  0
  5  6  1  0
  5 28  1  0
  5 29  1  0
  6  7  1  0
  6 30  1  0
  6 31  1  0
  7  8  1  6
  7  9  1  0
  7 20  1  0
  9 10  1  0
  9 32  1  0
 10 11  2  0
 10 15  1  0
 11 12  1  0
 12 13  2  0
 12 33  1  0
 13 14  1  0
 14 15  2  0
 14 18  1  0
 15 16  1  0
 16 17  2  0
 16 34  1  0
 17 18  1  0
 18 19  1  0
 19 35  1  0
 19 36  1  0
 19 37  1  0
 20 38  1  0
 20 39  1  0
M  END

