
     RDKit          3D

 58 60  0  0  0  0  0  0  0  0999 V2000
    1.0181   -1.4276   -2.0039 C   0  0  0  0  0  0  0  0  0  0  0  0
    2.2257   -1.0307   -1.1952 C   0  0  0  0  0  0  0  0  0  0  0  0
    2.3840    0.2654   -0.6856 C   0  0  0  0  0  0  0  0  0  0  0  0
    3.5320    0.5549    0.0588 C   0  0  0  0  0  0  0  0  0  0  0  0
    4.4793   -0.4400    0.2661 C   0  0  0  0  0  0  0  0  0  0  0  0
    4.2292   -1.7145   -0.2883 C   0  0  0  0  0  0  0  0  0  0  0  0
    5.1847   -2.7227   -0.0630 N   0  0  0  0  0  0  0  0  0  0  0  0
    5.3056   -3.9769   -0.6359 C   0  0  0  0  0  0  0  0  0  0  0  0
    4.5617   -4.4121   -1.4880 O   0  0  0  0  0  0  0  0  0  0  0  0
    6.5297   -4.8058   -0.1742 C   0  0  1  0  0  0  0  0  0  0  0  0
    7.2759   -4.3545    1.0946 C   0  0  0  0  0  0  0  0  0  0  0  0
    6.4996   -4.7082    2.3684 C   0  0  0  0  0  0  0  0  0  0  0  0
    6.1557   -6.1980    2.3880 C   0  0  0  0  0  0  0  0  0  0  0  0
    5.4399   -6.5987    1.1765 N   0  0  0  0  0  0  0  0  0  0  0  0
    4.2939   -7.3550    1.3332 C   0  0  0  0  0  0  0  0  0  0  0  0
    3.8263   -7.5611    2.4457 O   0  0  0  0  0  0  0  0  0  0  0  0
    3.5241   -7.9408    0.1188 C   0  0  1  0  0  0  0  0  0  0  0  0
    2.5990   -6.8655   -0.4688 C   0  0  0  0  0  0  0  0  0  0  0  0
    4.4042   -8.5899   -0.8583 N   0  0  0  0  0  0  0  0  0  0  0  0
    5.0882   -9.7771   -0.3321 C   0  0  0  0  0  0  0  0  0  0  0  0
    4.2070  -11.0410   -0.3825 C   0  0  0  0  0  0  0  0  0  0  0  0
    3.6615  -11.3091   -1.7122 N   0  0  0  0  0  0  0  0  0  0  0  0
    4.5692  -11.9728   -2.6277 C   0  0  0  0  0  0  0  0  0  0  0  0
    2.9959  -10.1232   -2.2505 C   0  0  0  0  0  0  0  0  0  0  0  0
    3.8804   -8.8639   -2.1994 C   0  0  0  0  0  0  0  0  0  0  0  0
    6.1449   -6.2980   -0.0668 C   0  0  0  0  0  0  0  0  0  0  0  0
    3.1375   -1.9917   -0.9873 N   0  0  0  0  0  0  0  0  0  0  0  0
    0.3159   -0.5925   -2.1375 H   0  0  0  0  0  0  0  0  0  0  0  0
    0.4921   -2.2616   -1.5122 H   0  0  0  0  0  0  0  0  0  0  0  0
    1.3319   -1.7944   -2.9942 H   0  0  0  0  0  0  0  0  0  0  0  0
    1.6250    1.0289   -0.8664 H   0  0  0  0  0  0  0  0  0  0  0  0
    3.6878    1.5547    0.4721 H   0  0  0  0  0  0  0  0  0  0  0  0
    5.3907   -0.2422    0.8364 H   0  0  0  0  0  0  0  0  0  0  0  0
    5.9147   -2.4643    0.5874 H   0  0  0  0  0  0  0  0  0  0  0  0
    7.2226   -4.7314   -1.0322 H   0  0  0  0  0  0  0  0  0  0  0  0
    7.5431   -3.2829    1.0606 H   0  0  0  0  0  0  0  0  0  0  0  0
    8.2468   -4.8804    1.1140 H   0  0  0  0  0  0  0  0  0  0  0  0
    5.5656   -4.1235    2.4271 H   0  0  0  0  0  0  0  0  0  0  0  0
    7.0938   -4.4577    3.2630 H   0  0  0  0  0  0  0  0  0  0  0  0
    5.5240   -6.4570    3.2450 H   0  0  0  0  0  0  0  0  0  0  0  0
    7.0926   -6.7872    2.4640 H   0  0  0  0  0  0  0  0  0  0  0  0
    2.8688   -8.6720    0.6308 H   0  0  0  0  0  0  0  0  0  0  0  0
    3.1425   -6.1002   -1.0402 H   0  0  0  0  0  0  0  0  0  0  0  0
    2.0721   -6.3669    0.3585 H   0  0  0  0  0  0  0  0  0  0  0  0
    1.8294   -7.3150   -1.1145 H   0  0  0  0  0  0  0  0  0  0  0  0
    5.4180   -9.5858    0.7020 H   0  0  0  0  0  0  0  0  0  0  0  0
    6.0034   -9.9409   -0.9308 H   0  0  0  0  0  0  0  0  0  0  0  0
    3.3618  -10.9217    0.3196 H   0  0  0  0  0  0  0  0  0  0  0  0
    4.7782  -11.9204   -0.0407 H   0  0  0  0  0  0  0  0  0  0  0  0
    4.9270  -12.9128   -2.1758 H   0  0  0  0  0  0  0  0  0  0  0  0
    5.4699  -11.3906   -2.9272 H   0  0  0  0  0  0  0  0  0  0  0  0
    4.0321  -12.2366   -3.5539 H   0  0  0  0  0  0  0  0  0  0  0  0
    2.0757   -9.9460   -1.6625 H   0  0  0  0  0  0  0  0  0  0  0  0
    2.6763  -10.3279   -3.2864 H   0  0  0  0  0  0  0  0  0  0  0  0
    3.3401   -7.9871   -2.5818 H   0  0  0  0  0  0  0  0  0  0  0  0
    4.7489   -9.0041   -2.8695 H   0  0  0  0  0  0  0  0  0  0  0  0
    5.5370   -6.5960   -0.9219 H   0  0  0  0  0  0  0  0  0  0  0  0
    7.0781   -6.8937   -0.1063 H   0  0  0  0  0  0  0  0  0  0  0  0
  1  2  1  0
  1 28  1  0
  1 29  1  0
  1 30  1  0
  2  3  2  0
  2 27  1  0
  3  4  1  0
  3 31  1  0
  4  5  2  0
  4 32  1  0
  5  6  1  0
  5 33  1  0
  6  7  1  0
  6 27  2  0
  7  8  1  0
  7 34  1  0
  8  9  2  0
  8 10  1  0
 10 11  1  0
 10 26  1  0
 10 35  1  6
 11 12  1  0
 11 36  1  0
 11 37  1  0
 12 13  1  0
 12 38  1  0
 12 39  1  0
 13 14  1  0
 13 40  1  0
 13 41  1  0
 14 15  1  0
 14 26  1  0
 15 16  2  0
 15 17  1  0
 17 18  1  0
 17 19  1  0
 17 42  1  1
 18 43  1  0
 18 44  1  0
 18 45  1  0
 19 20  1  0
 19 25  1  0
 20 21  1  0
 20 46  1  0
 20 47  1  0
 21 22  1  0
 21 48  1  0
 21 49  1  0
 22 23  1  0
 22 24  1  0
 23 50  1  0
 23 51  1  0
 23 52  1  0
 24 25  1  0
 24 53  1  0
 24 54  1  0
 25 55  1  0
 25 56  1  0
 26 57  1  0
 26 58  1  0
M  END

