
     RDKit          3D

 56 60  0  0  0  0  0  0  0  0999 V2000
    6.2926   -1.1504    4.4256 C   0  0  0  0  0  0  0  0  0  0  0  0
    6.6816   -1.6339    3.0501 C   0  0  0  0  0  0  0  0  0  0  0  0
    7.9846   -1.4792    2.5564 C   0  0  0  0  0  0  0  0  0  0  0  0
    8.3322   -1.9403    1.2879 C   0  0  0  0  0  0  0  0  0  0  0  0
    7.3745   -2.5579    0.4771 C   0  0  0  0  0  0  0  0  0  0  0  0
    7.7757   -3.0242   -0.8067 N   0  0  0  0  0  0  0  0  0  0  0  0
    8.8398   -2.5391   -1.4398 N   0  0  0  0  0  0  0  0  0  0  0  0
    8.8872   -3.2331   -2.5738 C   0  0  0  0  0  0  0  0  0  0  0  0
    7.8125   -4.1470   -2.5869 C   0  0  0  0  0  0  0  0  0  0  0  0
    7.1335   -3.9937   -1.4528 N   0  0  0  0  0  0  0  0  0  0  0  0
    6.0560   -2.7279    0.9382 C   0  0  0  0  0  0  0  0  0  0  0  0
    4.9021   -3.1417    0.0461 C   0  0  0  0  0  0  0  0  0  0  0  0
    4.5114   -2.3096   -0.7621 O   0  0  0  0  0  0  0  0  0  0  0  0
    4.2270   -4.3208    0.2657 N   0  0  0  0  0  0  0  0  0  0  0  0
    2.9663   -4.4911   -0.4696 C   0  0  0  0  0  0  0  0  0  0  0  0
    3.0958   -5.4587   -1.6602 C   0  0  1  0  0  0  0  0  0  0  0  0
    2.0769   -5.6284   -2.0525 H   0  0  0  0  0  0  0  0  0  0  0  0
    3.9438   -4.8250   -2.7908 C   0  0  0  0  0  0  0  0  0  0  0  0
    4.1860   -5.7136   -3.9726 C   0  0  0  0  0  0  0  0  0  0  0  0
    5.3437   -6.1654   -4.3373 N   0  0  0  0  0  0  0  0  0  0  0  0
    5.2613   -6.9682   -5.4613 C   0  0  0  0  0  0  0  0  0  0  0  0
    6.3439   -7.6031   -6.0938 C   0  0  0  0  0  0  0  0  0  0  0  0
    6.1078   -8.3840   -7.2215 C   0  0  0  0  0  0  0  0  0  0  0  0
    4.8047   -8.5424   -7.7307 C   0  0  0  0  0  0  0  0  0  0  0  0
    3.7153   -7.9226   -7.1193 C   0  0  0  0  0  0  0  0  0  0  0  0
    3.9524   -7.1379   -5.9846 C   0  0  0  0  0  0  0  0  0  0  0  0
    2.8242   -6.2362   -4.9990 S   0  0  0  0  0  0  0  0  0  0  0  0
    3.6417   -6.8022   -1.1439 C   0  0  0  0  0  0  0  0  0  0  0  0
    4.8980   -6.6283   -0.2843 C   0  0  0  0  0  0  0  0  0  0  0  0
    4.6996   -5.6009    0.8510 C   0  0  1  0  0  0  0  0  0  0  0  0
    3.8521   -5.9548    1.4700 H   0  0  0  0  0  0  0  0  0  0  0  0
    5.9241   -5.5627    1.7612 C   0  0  0  0  0  0  0  0  0  0  0  0
    5.7407   -2.2610    2.2204 C   0  0  0  0  0  0  0  0  0  0  0  0
    7.0926   -0.5506    4.8838 H   0  0  0  0  0  0  0  0  0  0  0  0
    6.0809   -1.9961    5.1023 H   0  0  0  0  0  0  0  0  0  0  0  0
    5.3818   -0.5310    4.3904 H   0  0  0  0  0  0  0  0  0  0  0  0
    8.7447   -0.9928    3.1734 H   0  0  0  0  0  0  0  0  0  0  0  0
    9.3454   -1.8238    0.9037 H   0  0  0  0  0  0  0  0  0  0  0  0
    9.6632   -3.0499   -3.3143 H   0  0  0  0  0  0  0  0  0  0  0  0
    7.4886   -4.8742   -3.3313 H   0  0  0  0  0  0  0  0  0  0  0  0
    2.6331   -3.5006   -0.7995 H   0  0  0  0  0  0  0  0  0  0  0  0
    2.2194   -4.8964    0.2363 H   0  0  0  0  0  0  0  0  0  0  0  0
    3.4445   -3.9005   -3.1243 H   0  0  0  0  0  0  0  0  0  0  0  0
    4.9275   -4.5250   -2.4085 H   0  0  0  0  0  0  0  0  0  0  0  0
    7.3496   -7.4739   -5.6888 H   0  0  0  0  0  0  0  0  0  0  0  0
    6.9435   -8.8814   -7.7197 H   0  0  0  0  0  0  0  0  0  0  0  0
    4.6425   -9.1595   -8.6179 H   0  0  0  0  0  0  0  0  0  0  0  0
    2.7060   -8.0476   -7.5175 H   0  0  0  0  0  0  0  0  0  0  0  0
    3.8437   -7.4913   -1.9796 H   0  0  0  0  0  0  0  0  0  0  0  0
    2.8536   -7.2807   -0.5346 H   0  0  0  0  0  0  0  0  0  0  0  0
    5.7501   -6.3009   -0.9006 H   0  0  0  0  0  0  0  0  0  0  0  0
    5.1770   -7.5974    0.1624 H   0  0  0  0  0  0  0  0  0  0  0  0
    6.8351   -5.2744    1.2201 H   0  0  0  0  0  0  0  0  0  0  0  0
    6.0780   -6.5804    2.1530 H   0  0  0  0  0  0  0  0  0  0  0  0
    5.7974   -4.8890    2.6174 H   0  0  0  0  0  0  0  0  0  0  0  0
    4.7110   -2.3763    2.5714 H   0  0  0  0  0  0  0  0  0  0  0  0
  1  2  1  0
  1 34  1  0
  1 35  1  0
  1 36  1  0
  2  3  2  0
  2 33  1  0
  3  4  1  0
  3 37  1  0
  4  5  2  0
  4 38  1  0
  5  6  1  0
  5 11  1  0
  6  7  1  0
  6 10  1  0
  7  8  2  0
  8  9  1  0
  8 39  1  0
  9 10  2  0
  9 40  1  0
 11 12  1  0
 11 33  2  0
 12 13  2  0
 12 14  1  0
 14 15  1  0
 14 30  1  0
 15 16  1  0
 15 41  1  0
 15 42  1  0
 16 17  1  6
 16 18  1  0
 16 28  1  0
 18 19  1  0
 18 43  1  0
 18 44  1  0
 19 20  2  0
 19 27  1  0
 20 21  1  0
 21 22  2  0
 21 26  1  0
 22 23  1  0
 22 45  1  0
 23 24  2  0
 23 46  1  0
 24 25  1  0
 24 47  1  0
 25 26  2  0
 25 48  1  0
 26 27  1  0
 28 29  1  0
 28 49  1  0
 28 50  1  0
 29 30  1  0
 29 51  1  0
 29 52  1  0
 30 31  1  1
 30 32  1  0
 32 53  1  0
 32 54  1  0
 32 55  1  0
 33 56  1  0
M  END

