
     RDKit          3D

 61 64  0  0  0  0  0  0  0  0999 V2000
    4.4671    1.2475    1.0924 C   0  0  0  0  0  0  0  0  0  0  0  0
    3.3111    1.2053    0.0874 C   0  0  1  0  0  0  0  0  0  0  0  0
    2.1675    0.3017    0.5604 C   0  0  0  0  0  0  0  0  0  0  0  0
    2.7979    2.6173   -0.2039 C   0  0  0  0  0  0  0  0  0  0  0  0
    3.7981    0.7594   -1.2214 O   0  0  0  0  0  0  0  0  0  0  0  0
    4.3386   -0.4663   -1.3998 C   0  0  0  0  0  0  0  0  0  0  0  0
    4.4824   -1.2987   -0.5240 O   0  0  0  0  0  0  0  0  0  0  0  0
    4.7061   -0.6664   -2.7087 N   0  0  0  0  0  0  0  0  0  0  0  0
    5.3585   -1.9172   -3.0825 C   0  0  0  0  0  0  0  0  0  0  0  0
    4.6782   -2.5524   -4.2992 C   0  0  0  0  0  0  0  0  0  0  0  0
    4.5452   -1.5794   -5.4893 C   0  0  2  0  0  0  0  0  0  0  0  0
    5.8745   -1.3386   -6.2120 C   0  0  2  0  0  0  0  0  0  0  0  0
    5.7850   -0.5145   -7.5271 C   0  0  0  0  0  0  0  0  0  0  0  0
    6.6461   -1.3268   -8.4564 C   0  0  0  0  0  0  0  0  0  0  0  0
    7.0571   -1.0597   -9.6725 N   0  0  0  0  0  0  0  0  0  0  0  0
    7.7982   -2.0141  -10.2928 C   0  0  0  0  0  0  0  0  0  0  0  0
    8.2834   -1.7128  -11.6649 C   0  0  0  0  0  0  0  0  0  0  0  0
    9.2408   -2.5149  -12.3178 C   0  0  0  0  0  0  0  0  0  0  0  0
    9.6731   -2.2108  -13.6078 C   0  0  0  0  0  0  0  0  0  0  0  0
    9.1432   -1.0952  -14.2605 C   0  0  0  0  0  0  0  0  0  0  0  0
    9.7072   -0.6919  -15.9235 S   0  0  1  0  0  0  0  0  0  0  0  0
    8.5514   -1.5602  -17.0099 C   0  0  0  0  0  0  0  0  0  0  0  0
    9.4989    0.7475  -16.1352 O   0  0  0  0  0  0  0  0  0  0  0  0
   11.0267   -1.3105  -16.1156 O   0  0  0  0  0  0  0  0  0  0  0  0
    8.2123   -0.2662  -13.6283 C   0  0  0  0  0  0  0  0  0  0  0  0
    7.7867   -0.5795  -12.3394 C   0  0  0  0  0  0  0  0  0  0  0  0
    8.0576   -3.2316   -9.6380 C   0  0  0  0  0  0  0  0  0  0  0  0
    7.6371   -3.5112   -8.3933 N   0  0  0  0  0  0  0  0  0  0  0  0
    6.9492   -2.5498   -7.8205 C   0  0  0  0  0  0  0  0  0  0  0  0
    6.4527   -2.6341   -6.5774 O   0  0  0  0  0  0  0  0  0  0  0  0
    3.9014   -0.2633   -5.0035 C   0  0  0  0  0  0  0  0  0  0  0  0
    4.5939    0.3279   -3.7674 C   0  0  0  0  0  0  0  0  0  0  0  0
    4.1195    1.6889    2.0396 H   0  0  0  0  0  0  0  0  0  0  0  0
    5.2874    1.8729    0.7060 H   0  0  0  0  0  0  0  0  0  0  0  0
    4.8531    0.2401    1.2915 H   0  0  0  0  0  0  0  0  0  0  0  0
    1.7322    0.7084    1.4867 H   0  0  0  0  0  0  0  0  0  0  0  0
    2.5248   -0.7172    0.7542 H   0  0  0  0  0  0  0  0  0  0  0  0
    1.3718    0.2613   -0.2003 H   0  0  0  0  0  0  0  0  0  0  0  0
    2.3997    3.0750    0.7142 H   0  0  0  0  0  0  0  0  0  0  0  0
    1.9945    2.5916   -0.9560 H   0  0  0  0  0  0  0  0  0  0  0  0
    3.6100    3.2545   -0.5863 H   0  0  0  0  0  0  0  0  0  0  0  0
    5.3177   -2.5868   -2.2152 H   0  0  0  0  0  0  0  0  0  0  0  0
    6.4290   -1.7256   -3.2943 H   0  0  0  0  0  0  0  0  0  0  0  0
    3.6661   -2.8767   -4.0042 H   0  0  0  0  0  0  0  0  0  0  0  0
    5.2312   -3.4518   -4.6076 H   0  0  0  0  0  0  0  0  0  0  0  0
    3.8751   -2.0404   -6.2365 H   0  0  0  0  0  0  0  0  0  0  0  0
    6.6089   -0.8727   -5.5341 H   0  0  0  0  0  0  0  0  0  0  0  0
    6.1440    0.5179   -7.4067 H   0  0  0  0  0  0  0  0  0  0  0  0
    4.7500   -0.4622   -7.9087 H   0  0  0  0  0  0  0  0  0  0  0  0
    9.6797   -3.3767  -11.8129 H   0  0  0  0  0  0  0  0  0  0  0  0
   10.4349   -2.8161  -14.1032 H   0  0  0  0  0  0  0  0  0  0  0  0
    7.5357   -1.1819  -16.8370 H   0  0  0  0  0  0  0  0  0  0  0  0
    8.6200   -2.6399  -16.8250 H   0  0  0  0  0  0  0  0  0  0  0  0
    8.8858   -1.3198  -18.0291 H   0  0  0  0  0  0  0  0  0  0  0  0
    7.8436    0.6235  -14.1428 H   0  0  0  0  0  0  0  0  0  0  0  0
    7.0652    0.0554  -11.8245 H   0  0  0  0  0  0  0  0  0  0  0  0
    8.6173   -4.0262  -10.1381 H   0  0  0  0  0  0  0  0  0  0  0  0
    2.8507   -0.4726   -4.7426 H   0  0  0  0  0  0  0  0  0  0  0  0
    3.8801    0.4927   -5.8060 H   0  0  0  0  0  0  0  0  0  0  0  0
    4.0293    1.1863   -3.3897 H   0  0  0  0  0  0  0  0  0  0  0  0
    5.6044    0.6996   -4.0328 H   0  0  0  0  0  0  0  0  0  0  0  0
  1  2  1  0
  1 33  1  0
  1 34  1  0
  1 35  1  0
  2  3  1  0
  2  4  1  0
  2  5  1  6
  3 36  1  0
  3 37  1  0
  3 38  1  0
  4 39  1  0
  4 40  1  0
  4 41  1  0
  5  6  1  0
  6  7  2  0
  6  8  1  0
  8  9  1  0
  8 32  1  0
  9 10  1  0
  9 42  1  0
  9 43  1  0
 10 11  1  0
 10 44  1  0
 10 45  1  0
 11 12  1  0
 11 31  1  0
 11 46  1  6
 12 13  1  0
 12 30  1  0
 12 47  1  1
 13 14  1  0
 13 48  1  0
 13 49  1  0
 14 15  1  0
 14 29  2  0
 15 16  2  0
 16 17  1  0
 16 27  1  0
 17 18  2  0
 17 26  1  0
 18 19  1  0
 18 50  1  0
 19 20  2  0
 19 51  1  0
 20 21  1  0
 20 25  1  0
 21 22  1  6
 21 23  2  0
 21 24  2  0
 22 52  1  0
 22 53  1  0
 22 54  1  0
 25 26  2  0
 25 55  1  0
 26 56  1  0
 27 28  2  0
 27 57  1  0
 28 29  1  0
 29 30  1  0
 31 32  1  0
 31 58  1  0
 31 59  1  0
 32 60  1  0
 32 61  1  0
M  END

