
     RDKit          3D

 78 80  0  0  0  0  0  0  0  0999 V2000
    4.8117   -0.6066   -3.8315 C   0  0  0  0  0  0  0  0  0  0  0  0
    5.2984   -1.1711   -2.5348 C   0  0  0  0  0  0  0  0  0  0  0  0
    6.5784   -1.3805   -2.3366 N   0  0  0  0  0  0  0  0  0  0  0  0
    6.6884   -1.8772   -1.0492 O   0  0  0  0  0  0  0  0  0  0  0  0
    5.4704   -1.9608   -0.4858 C   0  0  0  0  0  0  0  0  0  0  0  0
    5.3905   -2.4581    0.9348 C   0  0  2  0  0  0  0  0  0  0  0  0
    4.3173   -2.5288    1.1620 H   0  0  0  0  0  0  0  0  0  0  0  0
    6.0073   -1.4562    1.9366 C   0  0  0  0  0  0  0  0  0  0  0  0
    7.4964   -1.1529    1.8168 C   0  0  0  0  0  0  0  0  0  0  0  0
    7.9513   -0.0389    1.8783 O   0  0  0  0  0  0  0  0  0  0  0  0
    8.2330   -2.2780    1.6961 O   0  0  0  0  0  0  0  0  0  0  0  0
    9.6996   -2.2547    1.5222 C   0  0  1  0  0  0  0  0  0  0  0  0
   10.3543   -1.6809    2.7820 C   0  0  0  0  0  0  0  0  0  0  0  0
   10.0457   -3.7353    1.3543 C   0  0  0  0  0  0  0  0  0  0  0  0
   10.0652   -1.4659    0.2616 C   0  0  0  0  0  0  0  0  0  0  0  0
    5.9492   -3.7882    1.1030 N   0  0  0  0  0  0  0  0  0  0  0  0
    5.2345   -4.9193    0.8537 C   0  0  0  0  0  0  0  0  0  0  0  0
    4.0608   -4.9369    0.5235 O   0  0  0  0  0  0  0  0  0  0  0  0
    6.0193   -6.0020    1.0421 O   0  0  0  0  0  0  0  0  0  0  0  0
    5.5153   -7.3683    0.8983 C   0  0  1  0  0  0  0  0  0  0  0  0
    5.0583   -7.6146   -0.5435 C   0  0  0  0  0  0  0  0  0  0  0  0
    6.7442   -8.2193    1.2266 C   0  0  0  0  0  0  0  0  0  0  0  0
    4.3928   -7.6248    1.9097 C   0  0  0  0  0  0  0  0  0  0  0  0
    4.5230   -1.5272   -1.3732 C   0  0  0  0  0  0  0  0  0  0  0  0
    3.0516   -1.4625   -1.2333 C   0  0  0  0  0  0  0  0  0  0  0  0
    2.3476   -0.4189   -0.6328 C   0  0  0  0  0  0  0  0  0  0  0  0
    2.8935    0.7724    0.0592 C   0  0  0  0  0  0  0  0  0  0  0  0
    4.0507    0.7901    0.4504 O   0  0  0  0  0  0  0  0  0  0  0  0
    1.9634    1.9748    0.2600 C   0  0  1  0  0  0  0  0  0  0  0  0
    2.4527    2.9292    1.3676 C   0  0  0  0  0  0  0  0  0  0  0  0
    3.5869    3.8468    0.8987 C   0  0  0  0  0  0  0  0  0  0  0  0
    3.2440    4.5405   -0.2900 O   0  0  0  0  0  0  0  0  0  0  0  0
    2.9744    3.6616   -1.3601 C   0  0  0  0  0  0  0  0  0  0  0  0
    1.7692    2.7691   -1.0600 C   0  0  0  0  0  0  0  0  0  0  0  0
    0.6290   -0.6891   -0.7698 S   0  0  0  0  0  0  0  0  0  0  0  0
    0.8512   -2.1890   -1.6018 C   0  0  0  0  0  0  0  0  0  0  0  0
   -0.3375   -3.0172   -1.9949 C   0  0  0  0  0  0  0  0  0  0  0  0
    2.1930   -2.4742   -1.7848 C   0  0  0  0  0  0  0  0  0  0  0  0
    2.7092   -3.7351   -2.4208 C   0  0  0  0  0  0  0  0  0  0  0  0
    5.6577   -0.4587   -4.5162 H   0  0  0  0  0  0  0  0  0  0  0  0
    4.3127    0.3627   -3.6724 H   0  0  0  0  0  0  0  0  0  0  0  0
    4.0792   -1.2761   -4.3096 H   0  0  0  0  0  0  0  0  0  0  0  0
    5.8332   -1.8462    2.9543 H   0  0  0  0  0  0  0  0  0  0  0  0
    5.4882   -0.4950    1.8375 H   0  0  0  0  0  0  0  0  0  0  0  0
   10.0382   -2.2458    3.6731 H   0  0  0  0  0  0  0  0  0  0  0  0
   10.0908   -0.6246    2.9187 H   0  0  0  0  0  0  0  0  0  0  0  0
   11.4494   -1.7627    2.6977 H   0  0  0  0  0  0  0  0  0  0  0  0
    9.7312   -4.3135    2.2370 H   0  0  0  0  0  0  0  0  0  0  0  0
   11.1321   -3.8589    1.2297 H   0  0  0  0  0  0  0  0  0  0  0  0
    9.5474   -4.1538    0.4663 H   0  0  0  0  0  0  0  0  0  0  0  0
    9.8425   -0.3982    0.3794 H   0  0  0  0  0  0  0  0  0  0  0  0
    9.5045   -1.8456   -0.6054 H   0  0  0  0  0  0  0  0  0  0  0  0
   11.1416   -1.5816    0.0596 H   0  0  0  0  0  0  0  0  0  0  0  0
    6.9435   -3.8560    1.2946 H   0  0  0  0  0  0  0  0  0  0  0  0
    5.8659   -7.3635   -1.2490 H   0  0  0  0  0  0  0  0  0  0  0  0
    4.1750   -7.0111   -0.7873 H   0  0  0  0  0  0  0  0  0  0  0  0
    4.8067   -8.6784   -0.6773 H   0  0  0  0  0  0  0  0  0  0  0  0
    7.5633   -8.0034    0.5239 H   0  0  0  0  0  0  0  0  0  0  0  0
    6.4977   -9.2897    1.1580 H   0  0  0  0  0  0  0  0  0  0  0  0
    7.1002   -8.0070    2.2461 H   0  0  0  0  0  0  0  0  0  0  0  0
    3.5180   -6.9985    1.6937 H   0  0  0  0  0  0  0  0  0  0  0  0
    4.7413   -7.4075    2.9317 H   0  0  0  0  0  0  0  0  0  0  0  0
    4.0906   -8.6831    1.8705 H   0  0  0  0  0  0  0  0  0  0  0  0
    0.9790    1.5689    0.5524 H   0  0  0  0  0  0  0  0  0  0  0  0
    2.7830    2.3585    2.2500 H   0  0  0  0  0  0  0  0  0  0  0  0
    1.5997    3.5556    1.6789 H   0  0  0  0  0  0  0  0  0  0  0  0
    4.5075    3.2552    0.7450 H   0  0  0  0  0  0  0  0  0  0  0  0
    3.7953    4.6164    1.6578 H   0  0  0  0  0  0  0  0  0  0  0  0
    3.8677    3.0411   -1.5849 H   0  0  0  0  0  0  0  0  0  0  0  0
    2.7758    4.2877   -2.2443 H   0  0  0  0  0  0  0  0  0  0  0  0
    1.5729    2.0899   -1.9057 H   0  0  0  0  0  0  0  0  0  0  0  0
    0.8797    3.4114   -0.9476 H   0  0  0  0  0  0  0  0  0  0  0  0
   -1.2826   -2.5027   -1.7684 H   0  0  0  0  0  0  0  0  0  0  0  0
   -0.3458   -3.9821   -1.4608 H   0  0  0  0  0  0  0  0  0  0  0  0
   -0.3290   -3.2390   -3.0748 H   0  0  0  0  0  0  0  0  0  0  0  0
    1.9063   -4.3027   -2.9119 H   0  0  0  0  0  0  0  0  0  0  0  0
    3.1690   -4.3769   -1.6514 H   0  0  0  0  0  0  0  0  0  0  0  0
    3.4833   -3.5224   -3.1744 H   0  0  0  0  0  0  0  0  0  0  0  0
  1  2  1  0
  1 40  1  0
  1 41  1  0
  1 42  1  0
  2  3  2  0
  2 24  1  0
  3  4  1  0
  4  5  1  0
  5  6  1  0
  5 24  2  0
  6  7  1  1
  6  8  1  0
  6 16  1  0
  8  9  1  0
  8 43  1  0
  8 44  1  0
  9 10  2  0
  9 11  1  0
 12 11  1  1
 12 13  1  0
 12 14  1  0
 12 15  1  0
 13 45  1  0
 13 46  1  0
 13 47  1  0
 14 48  1  0
 14 49  1  0
 14 50  1  0
 15 51  1  0
 15 52  1  0
 15 53  1  0
 16 17  1  0
 16 54  1  0
 17 18  2  0
 17 19  1  0
 20 19  1  6
 20 21  1  0
 20 22  1  0
 20 23  1  0
 21 55  1  0
 21 56  1  0
 21 57  1  0
 22 58  1  0
 22 59  1  0
 22 60  1  0
 23 61  1  0
 23 62  1  0
 23 63  1  0
 24 25  1  0
 25 26  2  0
 25 38  1  0
 26 27  1  0
 26 35  1  0
 27 28  2  0
 27 29  1  0
 29 30  1  0
 29 34  1  0
 29 64  1  1
 30 31  1  0
 30 65  1  0
 30 66  1  0
 31 32  1  0
 31 67  1  0
 31 68  1  0
 32 33  1  0
 33 34  1  0
 33 69  1  0
 33 70  1  0
 34 71  1  0
 34 72  1  0
 35 36  1  0
 36 37  1  0
 36 38  2  0
 37 73  1  0
 37 74  1  0
 37 75  1  0
 38 39  1  0
 39 76  1  0
 39 77  1  0
 39 78  1  0
M  END

