
     RDKit          3D

 72 76  0  0  0  0  0  0  0  0999 V2000
    5.2187    0.1964    3.0697 C   0  0  0  0  0  0  0  0  0  0  0  0
    5.1059   -1.2941    3.2597 C   0  0  0  0  0  0  0  0  0  0  0  0
    5.3600   -1.8522    4.5451 C   0  0  0  0  0  0  0  0  0  0  0  0
    5.2730   -3.2050    4.7453 C   0  0  0  0  0  0  0  0  0  0  0  0
    5.5244   -3.7353    5.9913 O   0  0  0  0  0  0  0  0  0  0  0  0
    4.9154   -4.1237    3.6919 C   0  0  0  0  0  0  0  0  0  0  0  0
    4.8298   -5.5285    3.8975 C   0  0  0  0  0  0  0  0  0  0  0  0
    5.1208   -6.0619    5.1018 O   0  0  0  0  0  0  0  0  0  0  0  0
    4.4147   -6.3841    2.8396 C   0  0  0  0  0  0  0  0  0  0  0  0
    4.2859   -7.8193    2.9880 C   0  0  0  0  0  0  0  0  0  0  0  0
    4.6936   -8.3497    4.1745 O   0  0  0  0  0  0  0  0  0  0  0  0
    4.1790   -9.5290    4.6939 C   0  0  1  0  0  0  0  0  0  0  0  0
    3.1226   -9.6503    4.3802 H   0  0  0  0  0  0  0  0  0  0  0  0
    4.9553  -10.6108    4.2064 O   0  0  0  0  0  0  0  0  0  0  0  0
    4.5052  -11.9092    4.6118 C   0  0  2  0  0  0  0  0  0  0  0  0
    5.4304  -12.5016    4.7401 H   0  0  0  0  0  0  0  0  0  0  0  0
    3.6951  -12.5282    3.4739 C   0  0  0  0  0  0  0  0  0  0  0  0
    4.4120  -12.4920    2.2649 O   0  0  0  0  0  0  0  0  0  0  0  0
    3.7681  -11.8726    5.9585 C   0  0  1  0  0  0  0  0  0  0  0  0
    2.6979  -11.6501    5.8045 H   0  0  0  0  0  0  0  0  0  0  0  0
    3.7771  -13.1390    6.6002 O   0  0  0  0  0  0  0  0  0  0  0  0
    4.3489  -10.7930    6.8778 C   0  0  2  0  0  0  0  0  0  0  0  0
    5.4316  -11.0046    7.0115 H   0  0  0  0  0  0  0  0  0  0  0  0
    3.6704  -10.7950    8.1103 O   0  0  0  0  0  0  0  0  0  0  0  0
    4.2721   -9.4006    6.2365 C   0  0  1  0  0  0  0  0  0  0  0  0
    3.3287   -8.9311    6.5845 H   0  0  0  0  0  0  0  0  0  0  0  0
    5.3936   -8.6574    6.6197 O   0  0  0  0  0  0  0  0  0  0  0  0
    3.7990   -8.6121    1.9719 C   0  0  0  0  0  0  0  0  0  0  0  0
    3.3849   -8.0132    0.7587 C   0  0  0  0  0  0  0  0  0  0  0  0
    3.5197   -6.6657    0.5546 C   0  0  0  0  0  0  0  0  0  0  0  0
    4.0765   -5.7981    1.5552 C   0  0  0  0  0  0  0  0  0  0  0  0
    4.2666   -4.4094    1.3173 C   0  0  0  0  0  0  0  0  0  0  0  0
    4.0530   -3.8710   -0.0923 C   0  0  2  0  0  0  0  0  0  0  0  0
    4.0929   -4.7239   -0.7885 H   0  0  0  0  0  0  0  0  0  0  0  0
    5.1131   -2.9847   -0.4620 O   0  0  0  0  0  0  0  0  0  0  0  0
    5.1391   -2.6229   -1.8260 C   0  0  2  0  0  0  0  0  0  0  0  0
    5.1925   -3.5445   -2.4558 H   0  0  0  0  0  0  0  0  0  0  0  0
    6.3884   -1.7858   -2.0902 C   0  0  0  0  0  0  0  0  0  0  0  0
    7.5946   -2.4759   -1.8831 O   0  0  0  0  0  0  0  0  0  0  0  0
    3.8434   -1.8767   -2.1931 C   0  0  1  0  0  0  0  0  0  0  0  0
    3.8171   -0.9232   -1.6396 H   0  0  0  0  0  0  0  0  0  0  0  0
    3.7573   -1.5167   -3.5656 O   0  0  0  0  0  0  0  0  0  0  0  0
    2.6290   -2.7080   -1.7889 C   0  0  2  0  0  0  0  0  0  0  0  0
    2.6300   -3.6284   -2.4174 H   0  0  0  0  0  0  0  0  0  0  0  0
    1.4220   -1.9982   -1.9668 O   0  0  0  0  0  0  0  0  0  0  0  0
    2.6989   -3.1698   -0.3359 C   0  0  1  0  0  0  0  0  0  0  0  0
    2.6316   -2.2746    0.3120 H   0  0  0  0  0  0  0  0  0  0  0  0
    1.6546   -4.0738   -0.0592 O   0  0  0  0  0  0  0  0  0  0  0  0
    4.6493   -3.5596    2.3838 C   0  0  0  0  0  0  0  0  0  0  0  0
    4.7714   -2.1356    2.2273 C   0  0  0  0  0  0  0  0  0  0  0  0
    4.5221    0.7376    3.7330 H   0  0  0  0  0  0  0  0  0  0  0  0
    4.9976    0.4895    2.0335 H   0  0  0  0  0  0  0  0  0  0  0  0
    6.2341    0.5530    3.3142 H   0  0  0  0  0  0  0  0  0  0  0  0
    5.6308   -1.2004    5.3824 H   0  0  0  0  0  0  0  0  0  0  0  0
    5.7704   -3.0408    6.6160 H   0  0  0  0  0  0  0  0  0  0  0  0
    5.3453   -5.3435    5.7252 H   0  0  0  0  0  0  0  0  0  0  0  0
    2.7250  -11.9925    3.3889 H   0  0  0  0  0  0  0  0  0  0  0  0
    3.4642  -13.5777    3.7178 H   0  0  0  0  0  0  0  0  0  0  0  0
    4.8971  -11.6524    2.2610 H   0  0  0  0  0  0  0  0  0  0  0  0
    4.6999  -13.4163    6.7037 H   0  0  0  0  0  0  0  0  0  0  0  0
    3.5492  -11.7263    8.3512 H   0  0  0  0  0  0  0  0  0  0  0  0
    5.4296   -7.8797    6.0350 H   0  0  0  0  0  0  0  0  0  0  0  0
    3.7490   -9.6929    2.0929 H   0  0  0  0  0  0  0  0  0  0  0  0
    2.9535   -8.6421   -0.0241 H   0  0  0  0  0  0  0  0  0  0  0  0
    3.1378   -6.2424   -0.3698 H   0  0  0  0  0  0  0  0  0  0  0  0
    6.3898   -0.9352   -1.3896 H   0  0  0  0  0  0  0  0  0  0  0  0
    6.3023   -1.3698   -3.1131 H   0  0  0  0  0  0  0  0  0  0  0  0
    7.6399   -3.2144   -2.5041 H   0  0  0  0  0  0  0  0  0  0  0  0
    3.8194   -2.3258   -4.0949 H   0  0  0  0  0  0  0  0  0  0  0  0
    1.4653   -1.5752   -2.8372 H   0  0  0  0  0  0  0  0  0  0  0  0
    0.8332   -3.6494   -0.3468 H   0  0  0  0  0  0  0  0  0  0  0  0
    4.6142   -1.7098    1.2423 H   0  0  0  0  0  0  0  0  0  0  0  0
  1  2  1  0
  1 51  1  0
  1 52  1  0
  1 53  1  0
  2  3  2  0
  2 50  1  0
  3  4  1  0
  3 54  1  0
  4  5  1  0
  4  6  2  0
  5 55  1  0
  6  7  1  0
  6 49  1  0
  7  8  1  0
  7  9  2  0
  8 56  1  0
  9 10  1  0
  9 31  1  0
 10 11  1  0
 10 28  2  0
 11 12  1  0
 12 13  1  1
 12 14  1  0
 12 25  1  0
 14 15  1  0
 15 16  1  1
 15 17  1  0
 15 19  1  0
 17 18  1  0
 17 57  1  0
 17 58  1  0
 18 59  1  0
 19 20  1  6
 19 21  1  0
 19 22  1  0
 21 60  1  0
 22 23  1  1
 22 24  1  0
 22 25  1  0
 24 61  1  0
 25 26  1  1
 25 27  1  0
 27 62  1  0
 28 29  1  0
 28 63  1  0
 29 30  2  0
 29 64  1  0
 30 31  1  0
 30 65  1  0
 31 32  2  0
 32 33  1  0
 32 49  1  0
 33 34  1  6
 33 35  1  0
 33 46  1  0
 35 36  1  0
 36 37  1  6
 36 38  1  0
 36 40  1  0
 38 39  1  0
 38 66  1  0
 38 67  1  0
 39 68  1  0
 40 41  1  1
 40 42  1  0
 40 43  1  0
 42 69  1  0
 43 44  1  6
 43 45  1  0
 43 46  1  0
 45 70  1  0
 46 47  1  1
 46 48  1  0
 48 71  1  0
 49 50  2  0
 50 72  1  0
M  END

