
     RDKit          3D

 53 55  0  0  0  0  0  0  0  0999 V2000
    4.4242   -2.6335   -1.2267 O   0  0  0  0  0  0  0  0  0  0  0  0
    4.2064   -2.0145   -0.2200 C   0  0  0  0  0  0  0  0  0  0  0  0
    3.0095   -2.1354    0.3989 O   0  0  0  0  0  0  0  0  0  0  0  0
    5.2263   -1.0978    0.4734 C   0  0  1  0  0  0  0  0  0  0  0  0
    6.4678   -0.8879   -0.4104 C   0  0  0  0  0  0  0  0  0  0  0  0
    6.1868    0.0531   -1.5933 C   0  0  0  0  0  0  0  0  0  0  0  0
    5.5778    1.3991   -1.1715 C   0  0  2  0  0  0  0  0  0  0  0  0
    6.5856    2.2099   -0.4785 N   0  0  0  0  0  0  0  0  0  0  0  0
    6.4135    3.5806   -0.3753 C   0  0  0  0  0  0  0  0  0  0  0  0
    5.3651    4.1292   -0.6942 O   0  0  0  0  0  0  0  0  0  0  0  0
    7.4785    4.2967    0.1295 N   0  0  0  0  0  0  0  0  0  0  0  0
    7.2895    5.7272    0.3949 C   0  0  0  0  0  0  0  0  0  0  0  0
    8.6074    6.1463    1.0531 C   0  0  0  0  0  0  0  0  0  0  0  0
    9.0704    4.8650    1.7614 C   0  0  0  0  0  0  0  0  0  0  0  0
    8.6766    3.7422    0.7771 C   0  0  2  0  0  0  0  0  0  0  0  0
    9.7892    3.3852   -0.2316 C   0  0  0  0  0  0  0  0  0  0  0  0
   10.9375    2.5571    0.3730 C   0  0  0  0  0  0  0  0  0  0  0  0
   12.0091    2.1990   -0.6344 C   0  0  0  0  0  0  0  0  0  0  0  0
   13.0921    3.0611   -0.8713 C   0  0  0  0  0  0  0  0  0  0  0  0
   14.0629    2.7513   -1.8276 C   0  0  0  0  0  0  0  0  0  0  0  0
   13.9679    1.5686   -2.5672 C   0  0  0  0  0  0  0  0  0  0  0  0
   12.8966    0.6996   -2.3411 C   0  0  0  0  0  0  0  0  0  0  0  0
   11.9282    1.0142   -1.3835 C   0  0  0  0  0  0  0  0  0  0  0  0
    4.3343    1.1712   -0.2887 C   0  0  0  0  0  0  0  0  0  0  0  0
    4.6399    0.2652    0.9074 C   0  0  0  0  0  0  0  0  0  0  0  0
    2.9773   -1.5686    1.1827 H   0  0  0  0  0  0  0  0  0  0  0  0
    5.5278   -1.6523    1.3828 H   0  0  0  0  0  0  0  0  0  0  0  0
    6.8181   -1.8593   -0.7881 H   0  0  0  0  0  0  0  0  0  0  0  0
    7.2735   -0.4796    0.2241 H   0  0  0  0  0  0  0  0  0  0  0  0
    5.4822   -0.4444   -2.2770 H   0  0  0  0  0  0  0  0  0  0  0  0
    7.1108    0.2233   -2.1733 H   0  0  0  0  0  0  0  0  0  0  0  0
    5.2527    1.9509   -2.0694 H   0  0  0  0  0  0  0  0  0  0  0  0
    7.5305    1.8482   -0.4755 H   0  0  0  0  0  0  0  0  0  0  0  0
    6.4247    5.8810    1.0652 H   0  0  0  0  0  0  0  0  0  0  0  0
    7.0693    6.2764   -0.5331 H   0  0  0  0  0  0  0  0  0  0  0  0
    8.4828    6.9966    1.7396 H   0  0  0  0  0  0  0  0  0  0  0  0
    9.3409    6.4484    0.2876 H   0  0  0  0  0  0  0  0  0  0  0  0
    8.5185    4.7369    2.7069 H   0  0  0  0  0  0  0  0  0  0  0  0
   10.1431    4.8627    2.0052 H   0  0  0  0  0  0  0  0  0  0  0  0
    8.4023    2.8262    1.3317 H   0  0  0  0  0  0  0  0  0  0  0  0
   10.1896    4.3110   -0.6787 H   0  0  0  0  0  0  0  0  0  0  0  0
    9.3487    2.8240   -1.0736 H   0  0  0  0  0  0  0  0  0  0  0  0
   10.5222    1.6325    0.8114 H   0  0  0  0  0  0  0  0  0  0  0  0
   11.3943    3.1137    1.2083 H   0  0  0  0  0  0  0  0  0  0  0  0
   13.1790    3.9865   -0.2938 H   0  0  0  0  0  0  0  0  0  0  0  0
   14.8999    3.4349   -1.9929 H   0  0  0  0  0  0  0  0  0  0  0  0
   14.7278    1.3233   -3.3134 H   0  0  0  0  0  0  0  0  0  0  0  0
   12.8160   -0.2306   -2.9097 H   0  0  0  0  0  0  0  0  0  0  0  0
   11.0977    0.3230   -1.2095 H   0  0  0  0  0  0  0  0  0  0  0  0
    3.5449    0.7174   -0.9141 H   0  0  0  0  0  0  0  0  0  0  0  0
    3.9543    2.1479    0.0429 H   0  0  0  0  0  0  0  0  0  0  0  0
    3.7388    0.1449    1.5366 H   0  0  0  0  0  0  0  0  0  0  0  0
    5.3790    0.7618    1.5573 H   0  0  0  0  0  0  0  0  0  0  0  0
  1  2  2  0
  2  3  1  0
  2  4  1  0
  3 26  1  0
  4  5  1  0
  4 25  1  0
  4 27  1  1
  5  6  1  0
  5 28  1  0
  5 29  1  0
  6  7  1  0
  6 30  1  0
  6 31  1  0
  7  8  1  0
  7 24  1  0
  7 32  1  6
  8  9  1  0
  8 33  1  0
  9 10  2  0
  9 11  1  0
 11 12  1  0
 11 15  1  0
 12 13  1  0
 12 34  1  0
 12 35  1  0
 13 14  1  0
 13 36  1  0
 13 37  1  0
 14 15  1  0
 14 38  1  0
 14 39  1  0
 15 16  1  0
 15 40  1  1
 16 17  1  0
 16 41  1  0
 16 42  1  0
 17 18  1  0
 17 43  1  0
 17 44  1  0
 18 19  2  0
 18 23  1  0
 19 20  1  0
 19 45  1  0
 20 21  2  0
 20 46  1  0
 21 22  1  0
 21 47  1  0
 22 23  2  0
 22 48  1  0
 23 49  1  0
 24 25  1  0
 24 50  1  0
 24 51  1  0
 25 52  1  0
 25 53  1  0
M  END

