
     RDKit          3D

 35 35  0  0  0  0  0  0  0  0999 V2000
    8.3603   -1.4066    2.5774 N   0  0  0  0  0  0  0  0  0  0  0  0
    9.2767   -2.0084    1.7676 N   0  0  0  0  0  0  0  0  0  0  0  0
    8.6614   -2.5386    0.4870 O   0  0  0  0  0  0  0  0  0  0  0  0
    8.3877   -1.5706   -0.4027 C   0  0  0  0  0  0  0  0  0  0  0  0
    8.4500   -0.3863   -0.1654 O   0  0  0  0  0  0  0  0  0  0  0  0
    7.9836   -2.1636   -1.7389 C   0  0  0  0  0  0  0  0  0  0  0  0
    7.1699   -1.1781   -2.5828 C   0  0  0  0  0  0  0  0  0  0  0  0
    6.9068   -1.6733   -3.9328 N   0  0  0  0  0  0  0  0  0  0  0  0
    7.6581   -1.0890   -5.0366 C   0  0  0  0  0  0  0  0  0  0  0  0
    7.0999    0.2493   -5.5423 C   0  0  0  0  0  0  0  0  0  0  0  0
    5.6052    0.2462   -5.8945 C   0  0  0  0  0  0  0  0  0  0  0  0
    5.1400   -0.8394   -6.8886 C   0  0  0  0  0  0  0  0  0  0  0  0
    4.5662   -2.1313   -6.2814 C   0  0  0  0  0  0  0  0  0  0  0  0
    5.5184   -3.0539   -5.4931 C   0  0  0  0  0  0  0  0  0  0  0  0
    5.8696   -2.5624   -4.0883 C   0  0  0  0  0  0  0  0  0  0  0  0
    5.2233   -2.9496   -3.1226 O   0  0  0  0  0  0  0  0  0  0  0  0
    8.1833   -0.4633    2.2350 H   0  0  0  0  0  0  0  0  0  0  0  0
    7.4787   -1.9192    2.6845 H   0  0  0  0  0  0  0  0  0  0  0  0
    9.5151   -2.9159    2.1683 H   0  0  0  0  0  0  0  0  0  0  0  0
    7.4175   -3.0919   -1.5772 H   0  0  0  0  0  0  0  0  0  0  0  0
    8.9148   -2.4454   -2.2630 H   0  0  0  0  0  0  0  0  0  0  0  0
    7.7069   -0.2221   -2.6502 H   0  0  0  0  0  0  0  0  0  0  0  0
    6.2102   -0.9842   -2.0818 H   0  0  0  0  0  0  0  0  0  0  0  0
    7.6984   -1.8105   -5.8633 H   0  0  0  0  0  0  0  0  0  0  0  0
    8.7030   -0.9515   -4.7118 H   0  0  0  0  0  0  0  0  0  0  0  0
    7.6911    0.5400   -6.4297 H   0  0  0  0  0  0  0  0  0  0  0  0
    7.2835    1.0328   -4.7866 H   0  0  0  0  0  0  0  0  0  0  0  0
    5.3689    1.2391   -6.3118 H   0  0  0  0  0  0  0  0  0  0  0  0
    5.0074    0.1711   -4.9691 H   0  0  0  0  0  0  0  0  0  0  0  0
    5.9619   -1.0869   -7.5868 H   0  0  0  0  0  0  0  0  0  0  0  0
    4.3449   -0.4107   -7.5213 H   0  0  0  0  0  0  0  0  0  0  0  0
    4.1397   -2.7299   -7.1043 H   0  0  0  0  0  0  0  0  0  0  0  0
    3.7153   -1.8758   -5.6251 H   0  0  0  0  0  0  0  0  0  0  0  0
    6.4157   -3.2754   -6.0930 H   0  0  0  0  0  0  0  0  0  0  0  0
    5.0036   -4.0089   -5.3183 H   0  0  0  0  0  0  0  0  0  0  0  0
  1  2  1  0
  1 17  1  0
  1 18  1  0
  2  3  1  0
  2 19  1  0
  3  4  1  0
  4  5  2  0
  4  6  1  0
  6  7  1  0
  6 20  1  0
  6 21  1  0
  7  8  1  0
  7 22  1  0
  7 23  1  0
  8  9  1  0
  8 15  1  0
  9 10  1  0
  9 24  1  0
  9 25  1  0
 10 11  1  0
 10 26  1  0
 10 27  1  0
 11 12  1  0
 11 28  1  0
 11 29  1  0
 12 13  1  0
 12 30  1  0
 12 31  1  0
 13 14  1  0
 13 32  1  0
 13 33  1  0
 14 15  1  0
 14 34  1  0
 14 35  1  0
 15 16  2  0
M  END

