
     RDKit          3D

 73 75  0  0  0  0  0  0  0  0999 V2000
    1.7566    0.7890   -1.7881 C   0  0  0  0  0  0  0  0  0  0  0  0
    3.0344    1.1714   -1.7022 C   0  0  0  0  0  0  0  0  0  0  0  0
    3.7270    1.8867   -0.5552 C   0  0  1  0  0  0  0  0  0  0  0  0
    2.8402    2.2314    0.6643 C   0  0  0  0  0  0  0  0  0  0  0  0
    1.9329    3.4513    0.4534 C   0  0  0  0  0  0  0  0  0  0  0  0
    1.0363    3.7585    1.6565 C   0  0  0  0  0  0  0  0  0  0  0  0
    0.1500    4.9934    1.4698 C   0  0  0  0  0  0  0  0  0  0  0  0
   -0.7509    5.2995    2.6704 C   0  0  0  0  0  0  0  0  0  0  0  0
   -1.6319    6.5344    2.4762 C   0  0  0  0  0  0  0  0  0  0  0  0
    5.0610    1.2172   -0.1864 C   0  0  0  0  0  0  0  0  0  0  0  0
    6.2293    1.9475   -0.4454 C   0  0  0  0  0  0  0  0  0  0  0  0
    7.4888    1.4505   -0.1358 C   0  0  0  0  0  0  0  0  0  0  0  0
    7.6223    0.1915    0.4608 C   0  0  0  0  0  0  0  0  0  0  0  0
    9.0009   -0.2696    0.8233 C   0  0  0  0  0  0  0  0  0  0  0  0
    9.3824   -0.2949    2.1766 C   0  0  0  0  0  0  0  0  0  0  0  0
   10.6638   -0.6803    2.5734 C   0  0  0  0  0  0  0  0  0  0  0  0
   11.6081   -1.0470    1.6133 C   0  0  0  0  0  0  0  0  0  0  0  0
   11.2689   -1.0160    0.2594 C   0  0  0  0  0  0  0  0  0  0  0  0
    9.9784   -0.6329   -0.1282 C   0  0  0  0  0  0  0  0  0  0  0  0
    9.5953   -0.5114   -1.9004 S   0  0  1  0  0  0  0  0  0  0  0  0
    8.2764   -1.0792   -2.1437 O   0  0  0  0  0  0  0  0  0  0  0  0
    9.9477    0.8399   -2.3443 O   0  0  0  0  0  0  0  0  0  0  0  0
   10.6869   -1.5490   -2.6788 N   0  0  0  0  0  0  0  0  0  0  0  0
   11.9434   -1.1490   -3.1605 C   0  0  0  0  0  0  0  0  0  0  0  0
   13.0382   -1.6311   -2.6130 N   0  0  0  0  0  0  0  0  0  0  0  0
   14.0727   -1.1349   -3.3654 O   0  0  0  0  0  0  0  0  0  0  0  0
   13.5886   -0.3438   -4.3509 C   0  0  0  0  0  0  0  0  0  0  0  0
   14.5916    0.2785   -5.2565 C   0  0  0  0  0  0  0  0  0  0  0  0
   12.2194   -0.3081   -4.2887 C   0  0  0  0  0  0  0  0  0  0  0  0
   11.2331    0.3897   -5.1693 C   0  0  0  0  0  0  0  0  0  0  0  0
    6.4644   -0.5708    0.7341 C   0  0  0  0  0  0  0  0  0  0  0  0
    6.5850   -1.9356    1.3926 C   0  0  0  0  0  0  0  0  0  0  0  0
    6.7982   -3.1277    0.4691 C   0  0  1  0  0  0  0  0  0  0  0  0
    5.9041   -3.1853   -0.5314 F   0  0  0  0  0  0  0  0  0  0  0  0
    8.0227   -3.1387   -0.0842 F   0  0  0  0  0  0  0  0  0  0  0  0
    6.6802   -4.2746    1.1724 F   0  0  0  0  0  0  0  0  0  0  0  0
    5.1801   -0.0666    0.3997 C   0  0  0  0  0  0  0  0  0  0  0  0
    3.9549   -0.9069    0.6980 C   0  0  0  0  0  0  0  0  0  0  0  0
    1.3793    0.2935   -2.6869 H   0  0  0  0  0  0  0  0  0  0  0  0
    1.0372    0.9440   -0.9791 H   0  0  0  0  0  0  0  0  0  0  0  0
    3.6931    0.9760   -2.5576 H   0  0  0  0  0  0  0  0  0  0  0  0
    4.0298    2.8586   -0.9864 H   0  0  0  0  0  0  0  0  0  0  0  0
    3.5003    2.4316    1.5253 H   0  0  0  0  0  0  0  0  0  0  0  0
    2.2269    1.3628    0.9564 H   0  0  0  0  0  0  0  0  0  0  0  0
    1.3059    3.3048   -0.4427 H   0  0  0  0  0  0  0  0  0  0  0  0
    2.5631    4.3334    0.2358 H   0  0  0  0  0  0  0  0  0  0  0  0
    1.6653    3.8934    2.5563 H   0  0  0  0  0  0  0  0  0  0  0  0
    0.3972    2.8810    1.8694 H   0  0  0  0  0  0  0  0  0  0  0  0
   -0.4773    4.8595    0.5685 H   0  0  0  0  0  0  0  0  0  0  0  0
    0.7882    5.8724    1.2603 H   0  0  0  0  0  0  0  0  0  0  0  0
   -0.1228    5.4321    3.5703 H   0  0  0  0  0  0  0  0  0  0  0  0
   -1.3883    4.4206    2.8786 H   0  0  0  0  0  0  0  0  0  0  0  0
   -1.0234    7.4381    2.3038 H   0  0  0  0  0  0  0  0  0  0  0  0
   -2.2653    6.7237    3.3577 H   0  0  0  0  0  0  0  0  0  0  0  0
   -2.2996    6.4178    1.6060 H   0  0  0  0  0  0  0  0  0  0  0  0
    6.1488    2.9371   -0.9034 H   0  0  0  0  0  0  0  0  0  0  0  0
    8.3796    2.0380   -0.3648 H   0  0  0  0  0  0  0  0  0  0  0  0
    8.6500    0.0099    2.9285 H   0  0  0  0  0  0  0  0  0  0  0  0
   10.9246   -0.6870    3.6346 H   0  0  0  0  0  0  0  0  0  0  0  0
   12.6142   -1.3521    1.9095 H   0  0  0  0  0  0  0  0  0  0  0  0
   12.0165   -1.2977   -0.4836 H   0  0  0  0  0  0  0  0  0  0  0  0
   10.5913   -2.5221   -2.3947 H   0  0  0  0  0  0  0  0  0  0  0  0
   15.2666   -0.4838   -5.6769 H   0  0  0  0  0  0  0  0  0  0  0  0
   15.2142    1.0093   -4.7141 H   0  0  0  0  0  0  0  0  0  0  0  0
   14.0910    0.8000   -6.0832 H   0  0  0  0  0  0  0  0  0  0  0  0
   11.6929    0.7018   -6.1185 H   0  0  0  0  0  0  0  0  0  0  0  0
   10.8121    1.2743   -4.6686 H   0  0  0  0  0  0  0  0  0  0  0  0
   10.3860   -0.2760   -5.3989 H   0  0  0  0  0  0  0  0  0  0  0  0
    5.6877   -2.1692    1.9791 H   0  0  0  0  0  0  0  0  0  0  0  0
    7.4296   -1.9635    2.0930 H   0  0  0  0  0  0  0  0  0  0  0  0
    3.7555   -0.9556    1.7833 H   0  0  0  0  0  0  0  0  0  0  0  0
    4.0784   -1.9369    0.3382 H   0  0  0  0  0  0  0  0  0  0  0  0
    3.0588   -0.5099    0.2147 H   0  0  0  0  0  0  0  0  0  0  0  0
  1  2  2  0
  1 39  1  0
  1 40  1  0
  2  3  1  0
  2 41  1  0
  3  4  1  0
  3 10  1  0
  3 42  1  6
  4  5  1  0
  4 43  1  0
  4 44  1  0
  5  6  1  0
  5 45  1  0
  5 46  1  0
  6  7  1  0
  6 47  1  0
  6 48  1  0
  7  8  1  0
  7 49  1  0
  7 50  1  0
  8  9  1  0
  8 51  1  0
  8 52  1  0
  9 53  1  0
  9 54  1  0
  9 55  1  0
 10 11  2  0
 10 37  1  0
 11 12  1  0
 11 56  1  0
 12 13  2  0
 12 57  1  0
 13 14  1  0
 13 31  1  0
 14 15  2  0
 14 19  1  0
 15 16  1  0
 15 58  1  0
 16 17  2  0
 16 59  1  0
 17 18  1  0
 17 60  1  0
 18 19  2  0
 18 61  1  0
 19 20  1  0
 20 21  2  0
 20 22  2  0
 20 23  1  6
 23 24  1  0
 23 62  1  0
 24 25  2  0
 24 29  1  0
 25 26  1  0
 26 27  1  0
 27 28  1  0
 27 29  2  0
 28 63  1  0
 28 64  1  0
 28 65  1  0
 29 30  1  0
 30 66  1  0
 30 67  1  0
 30 68  1  0
 31 32  1  0
 31 37  2  0
 32 33  1  0
 32 69  1  0
 32 70  1  0
 33 34  1  6
 33 35  1  0
 33 36  1  0
 37 38  1  0
 38 71  1  0
 38 72  1  0
 38 73  1  0
M  END

