
     RDKit          3D

 44 46  0  0  0  0  0  0  0  0999 V2000
    0.7411    0.6611   -0.9929 C   0  0  0  0  0  0  0  0  0  0  0  0
    1.2428    0.9162    0.3193 O   0  0  0  0  0  0  0  0  0  0  0  0
    2.2792    1.7134    0.5933 C   0  0  0  0  0  0  0  0  0  0  0  0
    2.6972    2.8135   -0.1105 C   0  0  0  0  0  0  0  0  0  0  0  0
    1.8731    3.5198   -1.1586 C   0  0  0  0  0  0  0  0  0  0  0  0
    0.6663    3.4325   -1.1720 O   0  0  0  0  0  0  0  0  0  0  0  0
    2.5080    4.2857   -2.0420 O   0  0  0  0  0  0  0  0  0  0  0  0
    3.8939    3.4559    0.3162 N   0  0  0  0  0  0  0  0  0  0  0  0
    4.9638    4.0189   -0.3321 C   0  0  0  0  0  0  0  0  0  0  0  0
    5.1018    4.4047   -1.4765 O   0  0  0  0  0  0  0  0  0  0  0  0
    5.8425    3.9532    0.9295 C   0  0  1  0  0  0  0  0  0  0  0  0
    6.3953    5.1658    1.4363 N   0  0  0  0  0  0  0  0  0  0  0  0
    7.7121    5.2624    1.8073 C   0  0  0  0  0  0  0  0  0  0  0  0
    8.4697    4.3100    1.8076 O   0  0  0  0  0  0  0  0  0  0  0  0
    8.1558    6.6595    2.2991 C   0  0  1  0  0  0  0  0  0  0  0  0
    9.6011    6.7284    2.1853 N   0  0  0  0  0  0  0  0  0  0  0  0
    7.4757    7.7961    1.5498 C   0  0  0  0  0  0  0  0  0  0  0  0
    6.5827    8.5952    2.1588 C   0  0  0  0  0  0  0  0  0  0  0  0
    5.8814    9.7468    1.4915 C   0  0  0  0  0  0  0  0  0  0  0  0
    6.2808    9.9258    0.0519 C   0  0  0  0  0  0  0  0  0  0  0  0
    7.1716    9.1397   -0.5625 C   0  0  0  0  0  0  0  0  0  0  0  0
    7.8734    7.9903    0.1050 C   0  0  0  0  0  0  0  0  0  0  0  0
    4.5766    3.3259    1.6012 C   0  0  2  0  0  0  0  0  0  0  0  0
    4.1202    3.9350    2.3981 H   0  0  0  0  0  0  0  0  0  0  0  0
    4.7070    1.5745    2.0987 S   0  0  0  0  0  0  0  0  0  0  0  0
    2.9195    1.2422    1.8897 C   0  0  0  0  0  0  0  0  0  0  0  0
    0.3213   -0.3537   -0.9560 H   0  0  0  0  0  0  0  0  0  0  0  0
    1.5608    0.6973   -1.7292 H   0  0  0  0  0  0  0  0  0  0  0  0
   -0.0235    1.3949   -1.2727 H   0  0  0  0  0  0  0  0  0  0  0  0
    3.4974    4.2839   -1.9770 H   0  0  0  0  0  0  0  0  0  0  0  0
    6.6624    3.2256    0.8214 H   0  0  0  0  0  0  0  0  0  0  0  0
    5.8556    6.0260    1.3973 H   0  0  0  0  0  0  0  0  0  0  0  0
    7.7906    6.6935    3.3506 H   0  0  0  0  0  0  0  0  0  0  0  0
    9.9931    5.7957    2.3196 H   0  0  0  0  0  0  0  0  0  0  0  0
    9.9941    7.3560    2.8829 H   0  0  0  0  0  0  0  0  0  0  0  0
    6.3528    8.4253    3.2182 H   0  0  0  0  0  0  0  0  0  0  0  0
    6.0802   10.6780    2.0597 H   0  0  0  0  0  0  0  0  0  0  0  0
    4.7828    9.6177    1.5696 H   0  0  0  0  0  0  0  0  0  0  0  0
    5.8080   10.7463   -0.4978 H   0  0  0  0  0  0  0  0  0  0  0  0
    7.4190    9.3236   -1.6133 H   0  0  0  0  0  0  0  0  0  0  0  0
    8.9707    8.1117    0.0607 H   0  0  0  0  0  0  0  0  0  0  0  0
    7.6857    7.0569   -0.4631 H   0  0  0  0  0  0  0  0  0  0  0  0
    2.3579    1.6685    2.7393 H   0  0  0  0  0  0  0  0  0  0  0  0
    2.8062    0.1510    1.9457 H   0  0  0  0  0  0  0  0  0  0  0  0
  1  2  1  0
  1 27  1  0
  1 28  1  0
  1 29  1  0
  2  3  1  0
  3  4  2  0
  3 26  1  0
  4  5  1  0
  4  8  1  0
  5  6  2  0
  5  7  1  0
  7 30  1  0
  8  9  1  0
  8 23  1  0
  9 10  2  0
  9 11  1  0
 11 12  1  0
 11 23  1  0
 11 31  1  6
 12 13  1  0
 12 32  1  0
 13 14  2  0
 13 15  1  0
 15 16  1  0
 15 17  1  0
 15 33  1  1
 16 34  1  0
 16 35  1  0
 17 18  2  0
 17 22  1  0
 18 19  1  0
 18 36  1  0
 19 20  1  0
 19 37  1  0
 19 38  1  0
 20 21  2  0
 20 39  1  0
 21 22  1  0
 21 40  1  0
 22 41  1  0
 22 42  1  0
 23 24  1  1
 23 25  1  0
 25 26  1  0
 26 43  1  0
 26 44  1  0
M  END

