
     RDKit          3D

 40 40  0  0  0  0  0  0  0  0999 V2000
    0.9149   -0.4500   -0.3344 C   0  0  0  0  0  0  0  0  0  0  0  0
    2.4094   -0.2442   -0.0891 C   0  0  0  0  0  0  0  0  0  0  0  0
    2.8289    1.2250   -0.1060 C   0  0  0  0  0  0  0  0  0  0  0  0
    4.2515    1.3762    0.1487 N   0  0  0  0  0  0  0  0  0  0  0  0
    4.7376    2.7411    0.1516 C   0  0  1  0  0  0  0  0  0  0  0  0
    4.4052    3.4820    1.4399 C   0  0  0  0  0  0  0  0  0  0  0  0
    4.4661    2.8231    2.6754 C   0  0  0  0  0  0  0  0  0  0  0  0
    4.2041    3.5099    3.8615 C   0  0  0  0  0  0  0  0  0  0  0  0
    3.8793    4.8708    3.8277 C   0  0  0  0  0  0  0  0  0  0  0  0
    3.5960    5.6391    5.0927 C   0  0  1  0  0  0  0  0  0  0  0  0
    3.6558    4.8639    6.1886 F   0  0  0  0  0  0  0  0  0  0  0  0
    4.4752    6.6464    5.2687 F   0  0  0  0  0  0  0  0  0  0  0  0
    2.3714    6.2026    5.0681 F   0  0  0  0  0  0  0  0  0  0  0  0
    3.8133    5.5393    2.5989 C   0  0  0  0  0  0  0  0  0  0  0  0
    4.0726    4.8447    1.4174 C   0  0  0  0  0  0  0  0  0  0  0  0
    6.2636    2.7457   -0.1102 C   0  0  1  0  0  0  0  0  0  0  0  0
    6.9027    2.0763    0.9136 O   0  0  0  0  0  0  0  0  0  0  0  0
    8.3124    2.1497    0.8916 C   0  0  0  0  0  0  0  0  0  0  0  0
    6.5642    2.0946   -1.3332 O   0  0  0  0  0  0  0  0  0  0  0  0
    6.5494    2.9004   -2.4877 C   0  0  0  0  0  0  0  0  0  0  0  0
    0.6488   -1.5185   -0.3168 H   0  0  0  0  0  0  0  0  0  0  0  0
    0.6060   -0.0473   -1.3137 H   0  0  0  0  0  0  0  0  0  0  0  0
    0.3086    0.0555    0.4358 H   0  0  0  0  0  0  0  0  0  0  0  0
    2.9895   -0.7914   -0.8557 H   0  0  0  0  0  0  0  0  0  0  0  0
    2.7036   -0.6791    0.8811 H   0  0  0  0  0  0  0  0  0  0  0  0
    2.2725    1.7714    0.6764 H   0  0  0  0  0  0  0  0  0  0  0  0
    2.5180    1.6864   -1.0740 H   0  0  0  0  0  0  0  0  0  0  0  0
    4.7962    0.8353   -0.5221 H   0  0  0  0  0  0  0  0  0  0  0  0
    4.3034    3.3369   -0.6849 H   0  0  0  0  0  0  0  0  0  0  0  0
    4.7196    1.7624    2.6849 H   0  0  0  0  0  0  0  0  0  0  0  0
    4.2527    2.9896    4.8194 H   0  0  0  0  0  0  0  0  0  0  0  0
    3.5507    6.5992    2.5658 H   0  0  0  0  0  0  0  0  0  0  0  0
    4.0065    5.3699    0.4598 H   0  0  0  0  0  0  0  0  0  0  0  0
    6.6140    3.8018   -0.1746 H   0  0  0  0  0  0  0  0  0  0  0  0
    8.6794    1.6184    1.7805 H   0  0  0  0  0  0  0  0  0  0  0  0
    8.6617    3.2003    0.9356 H   0  0  0  0  0  0  0  0  0  0  0  0
    8.7301    1.6762   -0.0126 H   0  0  0  0  0  0  0  0  0  0  0  0
    6.8905    2.2778   -3.3273 H   0  0  0  0  0  0  0  0  0  0  0  0
    7.2316    3.7676   -2.3915 H   0  0  0  0  0  0  0  0  0  0  0  0
    5.5395    3.2835   -2.7289 H   0  0  0  0  0  0  0  0  0  0  0  0
  1  2  1  0
  1 21  1  0
  1 22  1  0
  1 23  1  0
  2  3  1  0
  2 24  1  0
  2 25  1  0
  3  4  1  0
  3 26  1  0
  3 27  1  0
  4  5  1  0
  4 28  1  0
  5  6  1  0
  5 16  1  0
  5 29  1  6
  6  7  2  0
  6 15  1  0
  7  8  1  0
  7 30  1  0
  8  9  2  0
  8 31  1  0
  9 10  1  0
  9 14  1  0
 10 11  1  1
 10 12  1  0
 10 13  1  0
 14 15  2  0
 14 32  1  0
 15 33  1  0
 16 17  1  0
 16 19  1  0
 16 34  1  6
 17 18  1  0
 18 35  1  0
 18 36  1  0
 18 37  1  0
 19 20  1  0
 20 38  1  0
 20 39  1  0
 20 40  1  0
M  END

