
     RDKit          3D

 32 33  0  0  0  0  0  0  0  0999 V2000
    0.7467   -1.7041    0.5737 O   0  0  0  0  0  0  0  0  0  0  0  0
    1.9420   -1.7053    0.7272 C   0  0  0  0  0  0  0  0  0  0  0  0
    2.5054   -2.2762    1.8245 O   0  0  0  0  0  0  0  0  0  0  0  0
    2.8251   -1.1341   -0.1623 N   0  0  0  0  0  0  0  0  0  0  0  0
    4.2810   -1.2726   -0.1933 C   0  0  1  0  0  0  0  0  0  0  0  0
    4.7506   -2.6909   -0.5885 C   0  0  0  0  0  0  0  0  0  0  0  0
    4.4380   -3.0086   -2.0542 C   0  0  0  0  0  0  0  0  0  0  0  0
    5.0487   -1.9743   -3.0365 C   0  0  2  0  0  0  0  0  0  0  0  0
    6.5437   -2.1418   -3.1588 C   0  0  0  0  0  0  0  0  0  0  0  0
    7.4282   -1.8079   -2.2659 N   0  0  0  0  0  0  0  0  0  0  0  0
    8.7073   -2.1443   -2.6396 C   0  0  0  0  0  0  0  0  0  0  0  0
    9.8431   -1.8597   -1.7142 C   0  0  0  0  0  0  0  0  0  0  0  0
    9.8164   -2.9520   -0.2568 Cl  0  0  0  0  0  0  0  0  0  0  0  0
    8.8099   -2.7539   -3.8662 C   0  0  0  0  0  0  0  0  0  0  0  0
    7.2456   -2.9106   -4.5807 S   0  0  0  0  0  0  0  0  0  0  0  0
    4.6301   -0.5415   -2.6263 C   0  0  0  0  0  0  0  0  0  0  0  0
    4.8875   -0.2267   -1.1443 C   0  0  0  0  0  0  0  0  0  0  0  0
    3.4560   -2.1032    1.8651 H   0  0  0  0  0  0  0  0  0  0  0  0
    2.3579   -0.7428   -0.9719 H   0  0  0  0  0  0  0  0  0  0  0  0
    4.6660   -1.0434    0.8195 H   0  0  0  0  0  0  0  0  0  0  0  0
    4.2670   -3.4368    0.0633 H   0  0  0  0  0  0  0  0  0  0  0  0
    5.8362   -2.7590   -0.4122 H   0  0  0  0  0  0  0  0  0  0  0  0
    3.3445   -3.0124   -2.2031 H   0  0  0  0  0  0  0  0  0  0  0  0
    4.7907   -4.0206   -2.3092 H   0  0  0  0  0  0  0  0  0  0  0  0
    4.6275   -2.1743   -4.0350 H   0  0  0  0  0  0  0  0  0  0  0  0
    9.7829   -0.8356   -1.3237 H   0  0  0  0  0  0  0  0  0  0  0  0
   10.8115   -2.0094   -2.2065 H   0  0  0  0  0  0  0  0  0  0  0  0
    9.7076   -3.1107   -4.3680 H   0  0  0  0  0  0  0  0  0  0  0  0
    3.5552   -0.4339   -2.8587 H   0  0  0  0  0  0  0  0  0  0  0  0
    5.1481    0.1986   -3.2569 H   0  0  0  0  0  0  0  0  0  0  0  0
    4.4887    0.7703   -0.8947 H   0  0  0  0  0  0  0  0  0  0  0  0
    5.9726   -0.2043   -0.9716 H   0  0  0  0  0  0  0  0  0  0  0  0
  1  2  2  0
  2  3  1  0
  2  4  1  0
  3 18  1  0
  4  5  1  0
  4 19  1  0
  5  6  1  0
  5 17  1  0
  5 20  1  1
  6  7  1  0
  6 21  1  0
  6 22  1  0
  7  8  1  0
  7 23  1  0
  7 24  1  0
  8  9  1  0
  8 16  1  0
  8 25  1  6
  9 10  2  0
  9 15  1  0
 10 11  1  0
 11 12  1  0
 11 14  2  0
 12 13  1  0
 12 26  1  0
 12 27  1  0
 14 15  1  0
 14 28  1  0
 16 17  1  0
 16 29  1  0
 16 30  1  0
 17 31  1  0
 17 32  1  0
M  END

