
     RDKit          3D

 49 51  0  0  0  0  0  0  0  0999 V2000
    0.6430   -0.4675    0.3610 C   0  0  0  0  0  0  0  0  0  0  0  0
    1.4480    0.5885    0.8456 O   0  0  0  0  0  0  0  0  0  0  0  0
    2.4617    0.3259    1.6934 C   0  0  0  0  0  0  0  0  0  0  0  0
    2.7975   -0.9590    2.1584 C   0  0  0  0  0  0  0  0  0  0  0  0
    3.8673   -1.1178    3.0368 C   0  0  0  0  0  0  0  0  0  0  0  0
    4.6303   -0.0190    3.4698 C   0  0  0  0  0  0  0  0  0  0  0  0
    5.7686   -0.1565    4.3907 C   0  0  0  0  0  0  0  0  0  0  0  0
    6.2133   -1.3825    4.9195 C   0  0  0  0  0  0  0  0  0  0  0  0
    7.1433   -1.3755    5.9707 C   0  0  0  0  0  0  0  0  0  0  0  0
    7.5592   -2.5855    6.6928 C   0  0  0  0  0  0  0  0  0  0  0  0
    6.7627   -3.7403    6.7618 C   0  0  0  0  0  0  0  0  0  0  0  0
    7.1898   -4.8727    7.4539 C   0  0  0  0  0  0  0  0  0  0  0  0
    8.4462   -4.8684    8.0873 C   0  0  0  0  0  0  0  0  0  0  0  0
    8.9545   -5.9098    8.7774 O   0  0  0  0  0  0  0  0  0  0  0  0
    8.2145   -7.1081    8.8890 C   0  0  0  0  0  0  0  0  0  0  0  0
    9.2565   -3.7173    8.0161 C   0  0  0  0  0  0  0  0  0  0  0  0
    8.8178   -2.5937    7.3356 C   0  0  0  0  0  0  0  0  0  0  0  0
    7.6781   -0.2660    6.3780 O   0  0  0  0  0  0  0  0  0  0  0  0
    7.6619    0.9485    5.4839 B   0  0  2  0  0  0  0  0  0  0  0  0
    8.9392    0.8393    4.4586 C   0  0  0  0  0  0  0  0  0  0  0  0
    8.9777    1.7423    3.2379 C   0  0  0  0  0  0  0  0  0  0  0  0
    9.8637    0.0784    4.7078 O   0  0  0  0  0  0  0  0  0  0  0  0
    7.7649    2.3251    6.3460 C   0  0  0  0  0  0  0  0  0  0  0  0
    8.2994    2.2863    7.7689 C   0  0  0  0  0  0  0  0  0  0  0  0
    7.4560    3.3878    5.8271 O   0  0  0  0  0  0  0  0  0  0  0  0
    6.3531    0.9501    4.7262 O   0  0  0  0  0  0  0  0  0  0  0  0
    4.2785    1.2659    2.9942 C   0  0  0  0  0  0  0  0  0  0  0  0
    3.2150    1.4366    2.1244 C   0  0  0  0  0  0  0  0  0  0  0  0
   -0.1010   -0.0103   -0.3041 H   0  0  0  0  0  0  0  0  0  0  0  0
    0.1191   -0.9901    1.1805 H   0  0  0  0  0  0  0  0  0  0  0  0
    1.2355   -1.2013   -0.2132 H   0  0  0  0  0  0  0  0  0  0  0  0
    2.2317   -1.8357    1.8441 H   0  0  0  0  0  0  0  0  0  0  0  0
    4.1014   -2.1244    3.3864 H   0  0  0  0  0  0  0  0  0  0  0  0
    5.7873   -2.3221    4.5827 H   0  0  0  0  0  0  0  0  0  0  0  0
    5.7757   -3.7527    6.2949 H   0  0  0  0  0  0  0  0  0  0  0  0
    6.5397   -5.7460    7.5017 H   0  0  0  0  0  0  0  0  0  0  0  0
    8.8289   -7.7984    9.4816 H   0  0  0  0  0  0  0  0  0  0  0  0
    8.0181   -7.5603    7.9008 H   0  0  0  0  0  0  0  0  0  0  0  0
    7.2530   -6.9479    9.4081 H   0  0  0  0  0  0  0  0  0  0  0  0
   10.2337   -3.7424    8.5019 H   0  0  0  0  0  0  0  0  0  0  0  0
    9.4513   -1.7095    7.2511 H   0  0  0  0  0  0  0  0  0  0  0  0
    8.7636    2.7820    3.5356 H   0  0  0  0  0  0  0  0  0  0  0  0
    8.1764    1.4532    2.5360 H   0  0  0  0  0  0  0  0  0  0  0  0
    9.9526    1.6686    2.7338 H   0  0  0  0  0  0  0  0  0  0  0  0
    9.3129    1.8488    7.7738 H   0  0  0  0  0  0  0  0  0  0  0  0
    7.6772    1.6268    8.3965 H   0  0  0  0  0  0  0  0  0  0  0  0
    8.3268    3.3013    8.1914 H   0  0  0  0  0  0  0  0  0  0  0  0
    4.8601    2.1261    3.3288 H   0  0  0  0  0  0  0  0  0  0  0  0
    2.9372    2.4251    1.7539 H   0  0  0  0  0  0  0  0  0  0  0  0
  1  2  1  0
  1 29  1  0
  1 30  1  0
  1 31  1  0
  2  3  1  0
  3  4  2  0
  3 28  1  0
  4  5  1  0
  4 32  1  0
  5  6  2  0
  5 33  1  0
  6  7  1  0
  6 27  1  0
  7  8  1  0
  7 26  2  0
  8  9  2  0
  8 34  1  0
  9 10  1  0
  9 18  1  0
 10 11  2  0
 10 17  1  0
 11 12  1  0
 11 35  1  0
 12 13  2  0
 12 36  1  0
 13 14  1  0
 13 16  1  0
 14 15  1  0
 15 37  1  0
 15 38  1  0
 15 39  1  0
 16 17  2  0
 16 40  1  0
 17 41  1  0
 18 19  1  0
 19 20  1  6
 19 23  1  0
 19 26  1  0
 20 21  1  0
 20 22  2  0
 21 42  1  0
 21 43  1  0
 21 44  1  0
 23 24  1  0
 23 25  2  0
 24 45  1  0
 24 46  1  0
 24 47  1  0
 27 28  2  0
 27 48  1  0
 28 49  1  0
M  CHG  2  19  -1  26   1
M  END

