
     RDKit          3D

 52 54  0  0  0  0  0  0  0  0999 V2000
    1.9501   -0.5836    3.2563 C   0  0  0  0  0  0  0  0  0  0  0  0
    3.2481   -0.5773    2.7070 O   0  0  0  0  0  0  0  0  0  0  0  0
    3.5563   -1.4672    1.7257 C   0  0  0  0  0  0  0  0  0  0  0  0
    4.8633   -1.4151    1.2256 C   0  0  0  0  0  0  0  0  0  0  0  0
    5.2644   -2.2937    0.2165 C   0  0  0  0  0  0  0  0  0  0  0  0
    4.3691   -3.2313   -0.3018 C   0  0  0  0  0  0  0  0  0  0  0  0
    4.6561   -4.1402   -1.2865 O   0  0  0  0  0  0  0  0  0  0  0  0
    5.9479   -4.1606   -1.8502 C   0  0  0  0  0  0  0  0  0  0  0  0
    3.0469   -3.2850    0.2008 C   0  0  0  0  0  0  0  0  0  0  0  0
    2.2137   -4.2587   -0.3738 N   0  0  0  0  0  0  0  0  0  0  0  0
    0.9054   -4.5558   -0.0877 C   0  0  0  0  0  0  0  0  0  0  0  0
    0.2259   -3.9346    0.7197 O   0  0  0  0  0  0  0  0  0  0  0  0
    0.3557   -5.7339   -0.8497 C   0  0  0  0  0  0  0  0  0  0  0  0
    1.1762   -6.8324   -1.1496 C   0  0  0  0  0  0  0  0  0  0  0  0
    0.7577   -7.9286   -1.7813 N   0  0  0  0  0  0  0  0  0  0  0  0
   -0.5222   -7.9715   -2.1406 C   0  0  0  0  0  0  0  0  0  0  0  0
   -1.4489   -6.9478   -1.8894 C   0  0  0  0  0  0  0  0  0  0  0  0
   -1.0077   -5.7896   -1.2259 C   0  0  0  0  0  0  0  0  0  0  0  0
   -1.9881   -4.6731   -0.9392 C   0  0  0  0  0  0  0  0  0  0  0  0
   -3.2635   -4.8050   -1.7671 C   0  0  0  0  0  0  0  0  0  0  0  0
   -3.7729   -6.1739   -1.7058 N   0  0  0  0  0  0  0  0  0  0  0  0
   -5.1385   -6.4591   -1.8399 C   0  0  0  0  0  0  0  0  0  0  0  0
   -5.5390   -7.3351   -2.5925 O   0  0  0  0  0  0  0  0  0  0  0  0
   -5.9942   -5.6969   -1.0615 N   0  0  0  0  0  0  0  0  0  0  0  0
   -5.6353   -5.1728    0.2447 C   0  0  0  0  0  0  0  0  0  0  0  0
   -7.4179   -5.8167   -1.3187 C   0  0  0  0  0  0  0  0  0  0  0  0
   -2.8792   -7.1191   -2.3559 C   0  0  0  0  0  0  0  0  0  0  0  0
    2.6439   -2.4026    1.2128 C   0  0  0  0  0  0  0  0  0  0  0  0
    1.9312    0.2035    4.0224 H   0  0  0  0  0  0  0  0  0  0  0  0
    1.7068   -1.5513    3.7308 H   0  0  0  0  0  0  0  0  0  0  0  0
    1.1786   -0.3622    2.4967 H   0  0  0  0  0  0  0  0  0  0  0  0
    5.5558   -0.6794    1.6378 H   0  0  0  0  0  0  0  0  0  0  0  0
    6.2863   -2.2394   -0.1596 H   0  0  0  0  0  0  0  0  0  0  0  0
    5.9495   -4.9563   -2.6073 H   0  0  0  0  0  0  0  0  0  0  0  0
    6.7204   -4.3849   -1.0927 H   0  0  0  0  0  0  0  0  0  0  0  0
    6.1960   -3.2006   -2.3378 H   0  0  0  0  0  0  0  0  0  0  0  0
    2.6646   -4.7809   -1.1175 H   0  0  0  0  0  0  0  0  0  0  0  0
    2.2262   -6.8329   -0.8332 H   0  0  0  0  0  0  0  0  0  0  0  0
   -0.8541   -8.8804   -2.6596 H   0  0  0  0  0  0  0  0  0  0  0  0
   -1.5183   -3.6940   -1.1157 H   0  0  0  0  0  0  0  0  0  0  0  0
   -2.2225   -4.6838    0.1378 H   0  0  0  0  0  0  0  0  0  0  0  0
   -3.0543   -4.5370   -2.8243 H   0  0  0  0  0  0  0  0  0  0  0  0
   -4.0256   -4.1011   -1.4143 H   0  0  0  0  0  0  0  0  0  0  0  0
   -4.5979   -5.4295    0.4892 H   0  0  0  0  0  0  0  0  0  0  0  0
   -6.2830   -5.6186    1.0222 H   0  0  0  0  0  0  0  0  0  0  0  0
   -5.7542   -4.0752    0.3037 H   0  0  0  0  0  0  0  0  0  0  0  0
   -7.5771   -6.1468   -2.3517 H   0  0  0  0  0  0  0  0  0  0  0  0
   -7.9096   -4.8417   -1.1634 H   0  0  0  0  0  0  0  0  0  0  0  0
   -7.8984   -6.5547   -0.6477 H   0  0  0  0  0  0  0  0  0  0  0  0
   -2.9251   -7.0117   -3.4606 H   0  0  0  0  0  0  0  0  0  0  0  0
   -3.2291   -8.1397   -2.1469 H   0  0  0  0  0  0  0  0  0  0  0  0
    1.6214   -2.4725    1.5697 H   0  0  0  0  0  0  0  0  0  0  0  0
  1  2  1  0
  1 29  1  0
  1 30  1  0
  1 31  1  0
  2  3  1  0
  3  4  2  0
  3 28  1  0
  4  5  1  0
  4 32  1  0
  5  6  2  0
  5 33  1  0
  6  7  1  0
  6  9  1  0
  7  8  1  0
  8 34  1  0
  8 35  1  0
  8 36  1  0
  9 10  1  0
  9 28  2  0
 10 11  1  0
 10 37  1  0
 11 12  2  0
 11 13  1  0
 13 14  2  0
 13 18  1  0
 14 15  1  0
 14 38  1  0
 15 16  2  0
 16 17  1  0
 16 39  1  0
 17 18  2  0
 17 27  1  0
 18 19  1  0
 19 20  1  0
 19 40  1  0
 19 41  1  0
 20 21  1  0
 20 42  1  0
 20 43  1  0
 21 22  1  0
 21 27  1  0
 22 23  2  0
 22 24  1  0
 24 25  1  0
 24 26  1  0
 25 44  1  0
 25 45  1  0
 25 46  1  0
 26 47  1  0
 26 48  1  0
 26 49  1  0
 27 50  1  0
 27 51  1  0
 28 52  1  0
M  END

