
     RDKit          3D

 45 46  0  0  0  0  0  0  0  0999 V2000
    1.0161   -0.7845    4.3352 C   0  0  0  0  0  0  0  0  0  0  0  0
    2.4977   -1.2200    4.3321 C   0  0  1  0  0  0  0  0  0  0  0  0
    3.3784   -0.0315    4.7614 C   0  0  0  0  0  0  0  0  0  0  0  0
    2.6518   -2.3711    5.3445 C   0  0  0  0  0  0  0  0  0  0  0  0
    2.8812   -1.7215    2.8927 C   0  0  1  0  0  0  0  0  0  0  0  0
    2.2691   -2.6261    2.7113 H   0  0  0  0  0  0  0  0  0  0  0  0
    2.6688   -0.6788    1.8833 N   0  0  0  0  0  0  0  0  0  0  0  0
    4.3392   -2.2310    2.8150 C   0  0  0  0  0  0  0  0  0  0  0  0
    4.6496   -3.3315    3.2485 O   0  0  0  0  0  0  0  0  0  0  0  0
    5.1980   -1.3388    2.2415 N   0  0  0  0  0  0  0  0  0  0  0  0
    6.5822   -1.4494    2.0216 C   0  0  0  0  0  0  0  0  0  0  0  0
    7.2529   -0.3896    1.3940 C   0  0  0  0  0  0  0  0  0  0  0  0
    8.6259   -0.4428    1.1581 C   0  0  0  0  0  0  0  0  0  0  0  0
    9.4118   -1.5596    1.5272 C   0  0  0  0  0  0  0  0  0  0  0  0
   10.7708   -1.6105    1.2779 N   0  0  0  0  0  0  0  0  0  0  0  0
   11.4445   -0.5754    0.5048 C   0  0  0  0  0  0  0  0  0  0  0  0
   12.8844   -1.0856    0.3945 C   0  0  0  0  0  0  0  0  0  0  0  0
   13.0815   -1.8190    1.7265 C   0  0  0  0  0  0  0  0  0  0  0  0
   11.7243   -2.4963    1.9609 C   0  0  0  0  0  0  0  0  0  0  0  0
    8.6940   -2.6147    2.1400 C   0  0  0  0  0  0  0  0  0  0  0  0
    9.3559   -3.7425    2.4885 F   0  0  0  0  0  0  0  0  0  0  0  0
    7.3330   -2.5772    2.3969 C   0  0  0  0  0  0  0  0  0  0  0  0
    0.6944   -0.5556    5.3636 H   0  0  0  0  0  0  0  0  0  0  0  0
    0.3604   -1.5840    3.9525 H   0  0  0  0  0  0  0  0  0  0  0  0
    0.8323    0.1270    3.7425 H   0  0  0  0  0  0  0  0  0  0  0  0
    3.0539    0.3474    5.7441 H   0  0  0  0  0  0  0  0  0  0  0  0
    3.3157    0.8001    4.0426 H   0  0  0  0  0  0  0  0  0  0  0  0
    4.4363   -0.3225    4.8511 H   0  0  0  0  0  0  0  0  0  0  0  0
    2.3611   -2.0237    6.3493 H   0  0  0  0  0  0  0  0  0  0  0  0
    3.6822   -2.7468    5.3880 H   0  0  0  0  0  0  0  0  0  0  0  0
    2.0047   -3.2235    5.0815 H   0  0  0  0  0  0  0  0  0  0  0  0
    1.8047   -0.1693    2.0536 H   0  0  0  0  0  0  0  0  0  0  0  0
    2.5821   -1.0947    0.9559 H   0  0  0  0  0  0  0  0  0  0  0  0
    4.7276   -0.4951    1.9127 H   0  0  0  0  0  0  0  0  0  0  0  0
    6.6958    0.5006    1.0890 H   0  0  0  0  0  0  0  0  0  0  0  0
    9.1029    0.4113    0.6780 H   0  0  0  0  0  0  0  0  0  0  0  0
   11.4148    0.4097    1.0180 H   0  0  0  0  0  0  0  0  0  0  0  0
   10.9657   -0.4373   -0.4806 H   0  0  0  0  0  0  0  0  0  0  0  0
   13.6086   -0.2744    0.2266 H   0  0  0  0  0  0  0  0  0  0  0  0
   12.9700   -1.7925   -0.4477 H   0  0  0  0  0  0  0  0  0  0  0  0
   13.2849   -1.0902    2.5293 H   0  0  0  0  0  0  0  0  0  0  0  0
   13.9137   -2.5388    1.7129 H   0  0  0  0  0  0  0  0  0  0  0  0
   11.4858   -2.5946    3.0312 H   0  0  0  0  0  0  0  0  0  0  0  0
   11.7039   -3.5146    1.5333 H   0  0  0  0  0  0  0  0  0  0  0  0
    6.8534   -3.4295    2.8731 H   0  0  0  0  0  0  0  0  0  0  0  0
  2  1  1  6
  1 23  1  0
  1 24  1  0
  1 25  1  0
  2  3  1  0
  2  4  1  0
  2  5  1  0
  3 26  1  0
  3 27  1  0
  3 28  1  0
  4 29  1  0
  4 30  1  0
  4 31  1  0
  5  6  1  6
  5  7  1  0
  5  8  1  0
  7 32  1  0
  7 33  1  0
  8  9  2  0
  8 10  1  0
 10 11  1  0
 10 34  1  0
 11 12  2  0
 11 22  1  0
 12 13  1  0
 12 35  1  0
 13 14  2  0
 13 36  1  0
 14 15  1  0
 14 20  1  0
 15 16  1  0
 15 19  1  0
 16 17  1  0
 16 37  1  0
 16 38  1  0
 17 18  1  0
 17 39  1  0
 17 40  1  0
 18 19  1  0
 18 41  1  0
 18 42  1  0
 19 43  1  0
 19 44  1  0
 20 21  1  0
 20 22  2  0
 22 45  1  0
M  END

