
     RDKit          3D

 60 64  0  0  0  0  0  0  0  0999 V2000
    0.8834    0.1771    1.0586 O   0  0  0  0  0  0  0  0  0  0  0  0
    1.9899   -0.0870    0.6191 C   0  0  0  0  0  0  0  0  0  0  0  0
    2.2761   -1.4239    0.0419 C   0  0  0  0  0  0  0  0  0  0  0  0
    3.1704   -1.8461   -0.9251 C   0  0  0  0  0  0  0  0  0  0  0  0
    3.0145   -3.2194   -1.2580 C   0  0  0  0  0  0  0  0  0  0  0  0
    2.0051   -3.8211   -0.5415 C   0  0  0  0  0  0  0  0  0  0  0  0
    1.2182   -2.7230    0.5244 S   0  0  0  0  0  0  0  0  0  0  0  0
    3.0127    0.8689    0.6081 N   0  0  0  0  0  0  0  0  0  0  0  0
    2.6642    2.2728    0.9210 C   0  0  0  0  0  0  0  0  0  0  0  0
    2.6083    3.1923   -0.3018 C   0  0  0  0  0  0  0  0  0  0  0  0
    1.5533    2.8046   -1.3413 C   0  0  0  0  0  0  0  0  0  0  0  0
    1.4771    3.7831   -2.5164 C   0  0  0  0  0  0  0  0  0  0  0  0
    0.4321    3.3840   -3.5647 C   0  0  0  0  0  0  0  0  0  0  0  0
    0.3373    4.3424   -4.6623 N   0  0  0  0  0  0  0  0  0  0  0  0
    1.3772    4.2403   -5.6855 C   0  0  0  0  0  0  0  0  0  0  0  0
    1.0566    3.1814   -6.7468 C   0  0  0  0  0  0  0  0  0  0  0  0
   -0.2146    3.4119   -7.3273 O   0  0  0  0  0  0  0  0  0  0  0  0
   -1.2470    3.4252   -6.3573 C   0  0  0  0  0  0  0  0  0  0  0  0
   -0.9729    4.4900   -5.2905 C   0  0  0  0  0  0  0  0  0  0  0  0
    4.3727    0.5606    0.5165 C   0  0  0  0  0  0  0  0  0  0  0  0
    5.1805    1.0311   -0.3855 N   0  0  0  0  0  0  0  0  0  0  0  0
    6.4805    0.6363   -0.1637 C   0  0  0  0  0  0  0  0  0  0  0  0
    7.5200    1.0548   -1.0869 C   0  0  0  0  0  0  0  0  0  0  0  0
    7.4771    1.8245   -2.2178 C   0  0  0  0  0  0  0  0  0  0  0  0
    8.8291    1.8910   -2.7093 C   0  0  0  0  0  0  0  0  0  0  0  0
    9.4782    2.4983   -3.8000 C   0  0  0  0  0  0  0  0  0  0  0  0
   10.8538    2.3206   -3.9374 C   0  0  0  0  0  0  0  0  0  0  0  0
   11.5904    1.5526   -3.0120 C   0  0  0  0  0  0  0  0  0  0  0  0
   10.9697    0.9396   -1.9210 C   0  0  0  0  0  0  0  0  0  0  0  0
    9.5960    1.1283   -1.8006 C   0  0  0  0  0  0  0  0  0  0  0  0
    8.7955    0.6242   -0.8190 O   0  0  0  0  0  0  0  0  0  0  0  0
    6.6707   -0.1631    0.9447 C   0  0  0  0  0  0  0  0  0  0  0  0
    5.1745   -0.4034    1.7642 S   0  0  0  0  0  0  0  0  0  0  0  0
    3.8997   -1.1889   -1.3978 H   0  0  0  0  0  0  0  0  0  0  0  0
    3.6230   -3.7397   -1.9992 H   0  0  0  0  0  0  0  0  0  0  0  0
    1.6811   -4.8603   -0.5910 H   0  0  0  0  0  0  0  0  0  0  0  0
    3.4064    2.6477    1.6432 H   0  0  0  0  0  0  0  0  0  0  0  0
    1.6895    2.2336    1.4261 H   0  0  0  0  0  0  0  0  0  0  0  0
    3.6039    3.2256   -0.7750 H   0  0  0  0  0  0  0  0  0  0  0  0
    2.4036    4.2125    0.0707 H   0  0  0  0  0  0  0  0  0  0  0  0
    0.5646    2.7293   -0.8537 H   0  0  0  0  0  0  0  0  0  0  0  0
    1.7771    1.7928   -1.7240 H   0  0  0  0  0  0  0  0  0  0  0  0
    2.4723    3.8580   -2.9904 H   0  0  0  0  0  0  0  0  0  0  0  0
    1.2352    4.7986   -2.1575 H   0  0  0  0  0  0  0  0  0  0  0  0
   -0.5539    3.3405   -3.0725 H   0  0  0  0  0  0  0  0  0  0  0  0
    0.6405    2.3447   -3.9036 H   0  0  0  0  0  0  0  0  0  0  0  0
    2.3494    4.0270   -5.2137 H   0  0  0  0  0  0  0  0  0  0  0  0
    1.4707    5.2195   -6.1905 H   0  0  0  0  0  0  0  0  0  0  0  0
    1.0918    2.1649   -6.3000 H   0  0  0  0  0  0  0  0  0  0  0  0
    1.7925    3.2112   -7.5663 H   0  0  0  0  0  0  0  0  0  0  0  0
   -1.3424    2.4234   -5.8858 H   0  0  0  0  0  0  0  0  0  0  0  0
   -2.1865    3.6349   -6.8936 H   0  0  0  0  0  0  0  0  0  0  0  0
   -1.7583    4.4750   -4.5173 H   0  0  0  0  0  0  0  0  0  0  0  0
   -1.0132    5.4810   -5.7804 H   0  0  0  0  0  0  0  0  0  0  0  0
    6.5825    2.2795   -2.6344 H   0  0  0  0  0  0  0  0  0  0  0  0
    8.9167    3.0955   -4.5223 H   0  0  0  0  0  0  0  0  0  0  0  0
   11.3755    2.7846   -4.7780 H   0  0  0  0  0  0  0  0  0  0  0  0
   12.6679    1.4345   -3.1504 H   0  0  0  0  0  0  0  0  0  0  0  0
   11.5254    0.3424   -1.1960 H   0  0  0  0  0  0  0  0  0  0  0  0
    7.6010   -0.6119    1.2855 H   0  0  0  0  0  0  0  0  0  0  0  0
  1  2  2  0
  2  3  1  0
  2  8  1  0
  3  4  2  0
  3  7  1  0
  4  5  1  0
  4 34  1  0
  5  6  2  0
  5 35  1  0
  6  7  1  0
  6 36  1  0
  8  9  1  0
  8 20  1  0
  9 10  1  0
  9 37  1  0
  9 38  1  0
 10 11  1  0
 10 39  1  0
 10 40  1  0
 11 12  1  0
 11 41  1  0
 11 42  1  0
 12 13  1  0
 12 43  1  0
 12 44  1  0
 13 14  1  0
 13 45  1  0
 13 46  1  0
 14 15  1  0
 14 19  1  0
 15 16  1  0
 15 47  1  0
 15 48  1  0
 16 17  1  0
 16 49  1  0
 16 50  1  0
 17 18  1  0
 18 19  1  0
 18 51  1  0
 18 52  1  0
 19 53  1  0
 19 54  1  0
 20 21  2  0
 20 33  1  0
 21 22  1  0
 22 23  1  0
 22 32  2  0
 23 24  2  0
 23 31  1  0
 24 25  1  0
 24 55  1  0
 25 26  2  0
 25 30  1  0
 26 27  1  0
 26 56  1  0
 27 28  2  0
 27 57  1  0
 28 29  1  0
 28 58  1  0
 29 30  2  0
 29 59  1  0
 30 31  1  0
 32 33  1  0
 32 60  1  0
M  END

