
     RDKit          3D

 46 49  0  0  0  0  0  0  0  0999 V2000
    5.0416   -2.3502   -0.4189 O   0  0  0  0  0  0  0  0  0  0  0  0
    4.4092   -1.3422   -0.1520 C   0  0  0  0  0  0  0  0  0  0  0  0
    3.3807   -1.2975    0.7611 N   0  0  0  0  0  0  0  0  0  0  0  0
    2.8201   -2.3478    1.5135 C   0  0  0  0  0  0  0  0  0  0  0  0
    3.2097   -3.6916    1.3981 C   0  0  0  0  0  0  0  0  0  0  0  0
    2.5896   -4.6655    2.1764 C   0  0  0  0  0  0  0  0  0  0  0  0
    1.5644   -4.3479    3.0896 C   0  0  0  0  0  0  0  0  0  0  0  0
    1.1739   -2.9910    3.2178 C   0  0  0  0  0  0  0  0  0  0  0  0
    1.8078   -2.0273    2.4282 C   0  0  0  0  0  0  0  0  0  0  0  0
    0.1155   -2.5254    4.2023 C   0  0  0  0  0  0  0  0  0  0  0  0
   -0.6564   -3.6793    4.8398 C   0  0  0  0  0  0  0  0  0  0  0  0
    0.3103   -4.8195    5.1355 C   0  0  0  0  0  0  0  0  0  0  0  0
    0.9032   -5.3344    3.8932 N   0  0  0  0  0  0  0  0  0  0  0  0
    0.9006   -6.6888    3.5925 C   0  0  0  0  0  0  0  0  0  0  0  0
    1.6294   -7.2073    2.7615 O   0  0  0  0  0  0  0  0  0  0  0  0
   -0.0842   -7.5859    4.3103 C   0  0  0  0  0  0  0  0  0  0  0  0
    0.3680   -8.8203    4.7975 C   0  0  0  0  0  0  0  0  0  0  0  0
   -0.5538   -9.7107    5.3441 C   0  0  0  0  0  0  0  0  0  0  0  0
   -1.9057   -9.3491    5.3545 C   0  0  0  0  0  0  0  0  0  0  0  0
   -2.3574   -8.1950    4.8587 N   0  0  0  0  0  0  0  0  0  0  0  0
   -1.4669   -7.3403    4.3536 C   0  0  0  0  0  0  0  0  0  0  0  0
    4.7344   -0.0224   -0.8115 C   0  0  0  0  0  0  0  0  0  0  0  0
    6.0193    0.1211   -1.3578 C   0  0  0  0  0  0  0  0  0  0  0  0
    6.3871    1.3095   -1.9905 C   0  0  0  0  0  0  0  0  0  0  0  0
    5.4783    2.3660   -2.1044 C   0  0  0  0  0  0  0  0  0  0  0  0
    4.2003    2.2030   -1.5753 C   0  0  0  0  0  0  0  0  0  0  0  0
    3.3098    3.1986   -1.6936 F   0  0  0  0  0  0  0  0  0  0  0  0
    3.8125    1.0297   -0.9334 C   0  0  0  0  0  0  0  0  0  0  0  0
    3.0143   -0.3788    0.9765 H   0  0  0  0  0  0  0  0  0  0  0  0
    4.0014   -3.9653    0.7055 H   0  0  0  0  0  0  0  0  0  0  0  0
    2.8966   -5.7008    2.0722 H   0  0  0  0  0  0  0  0  0  0  0  0
    1.4914   -0.9838    2.5338 H   0  0  0  0  0  0  0  0  0  0  0  0
   -0.5726   -1.8231    3.7039 H   0  0  0  0  0  0  0  0  0  0  0  0
    0.6156   -1.9419    4.9970 H   0  0  0  0  0  0  0  0  0  0  0  0
   -1.4456   -4.0440    4.1612 H   0  0  0  0  0  0  0  0  0  0  0  0
   -1.1534   -3.3512    5.7664 H   0  0  0  0  0  0  0  0  0  0  0  0
   -0.1780   -5.6385    5.6708 H   0  0  0  0  0  0  0  0  0  0  0  0
    1.1281   -4.4542    5.7848 H   0  0  0  0  0  0  0  0  0  0  0  0
    1.4298   -9.0688    4.7332 H   0  0  0  0  0  0  0  0  0  0  0  0
   -0.2365  -10.6754    5.7464 H   0  0  0  0  0  0  0  0  0  0  0  0
   -2.6565  -10.0287    5.7750 H   0  0  0  0  0  0  0  0  0  0  0  0
   -1.8713   -6.4096    3.9383 H   0  0  0  0  0  0  0  0  0  0  0  0
    6.7124   -0.7173   -1.2760 H   0  0  0  0  0  0  0  0  0  0  0  0
    7.3922    1.4177   -2.4051 H   0  0  0  0  0  0  0  0  0  0  0  0
    5.7382    3.3035   -2.5995 H   0  0  0  0  0  0  0  0  0  0  0  0
    2.7829    0.9569   -0.5770 H   0  0  0  0  0  0  0  0  0  0  0  0
  1  2  2  0
  2  3  1  0
  2 22  1  0
  3  4  1  0
  3 29  1  0
  4  5  2  0
  4  9  1  0
  5  6  1  0
  5 30  1  0
  6  7  2  0
  6 31  1  0
  7  8  1  0
  7 13  1  0
  8  9  2  0
  8 10  1  0
  9 32  1  0
 10 11  1  0
 10 33  1  0
 10 34  1  0
 11 12  1  0
 11 35  1  0
 11 36  1  0
 12 13  1  0
 12 37  1  0
 12 38  1  0
 13 14  1  0
 14 15  2  0
 14 16  1  0
 16 17  2  0
 16 21  1  0
 17 18  1  0
 17 39  1  0
 18 19  2  0
 18 40  1  0
 19 20  1  0
 19 41  1  0
 20 21  2  0
 21 42  1  0
 22 23  2  0
 22 28  1  0
 23 24  1  0
 23 43  1  0
 24 25  2  0
 24 44  1  0
 25 26  1  0
 25 45  1  0
 26 27  1  0
 26 28  2  0
 28 46  1  0
M  END

