
     RDKit          3D

 40 41  0  0  0  0  0  0  0  0999 V2000
    0.9516    0.3316   -0.6589 C   0  0  0  0  0  0  0  0  0  0  0  0
    2.4079    0.2236   -1.0689 C   0  0  0  0  0  0  0  0  0  0  0  0
    2.8793   -1.0610   -0.6960 O   0  0  0  0  0  0  0  0  0  0  0  0
    4.1817   -1.3878   -0.9104 C   0  0  0  0  0  0  0  0  0  0  0  0
    5.1160   -0.5632   -1.5525 C   0  0  0  0  0  0  0  0  0  0  0  0
    6.4430   -0.9782   -1.7110 C   0  0  0  0  0  0  0  0  0  0  0  0
    6.8729   -2.2223   -1.2352 C   0  0  0  0  0  0  0  0  0  0  0  0
    8.3352   -2.6594   -1.3536 C   0  0  1  0  0  0  0  0  0  0  0  0
    8.5542   -3.9691   -0.8402 O   0  0  0  0  0  0  0  0  0  0  0  0
    8.8953   -2.5297   -2.7496 C   0  0  0  0  0  0  0  0  0  0  0  0
   10.2650   -2.4555   -3.1193 C   0  0  0  0  0  0  0  0  0  0  0  0
   10.4248   -2.4547   -4.4381 N   0  0  0  0  0  0  0  0  0  0  0  0
    9.1836   -2.5363   -4.9423 N   0  0  0  0  0  0  0  0  0  0  0  0
    8.9905   -2.5196   -6.3771 C   0  0  0  0  0  0  0  0  0  0  0  0
    8.2327   -2.5839   -3.9705 C   0  0  0  0  0  0  0  0  0  0  0  0
    5.9358   -3.0411   -0.5904 C   0  0  0  0  0  0  0  0  0  0  0  0
    4.6058   -2.6500   -0.4287 C   0  0  0  0  0  0  0  0  0  0  0  0
    3.7545   -3.4679    0.2590 O   0  0  0  0  0  0  0  0  0  0  0  0
    2.6975   -4.0865   -0.4746 C   0  0  0  0  0  0  0  0  0  0  0  0
    1.8902   -4.9334    0.4890 C   0  0  0  0  0  0  0  0  0  0  0  0
    0.5558    1.3253   -0.9204 H   0  0  0  0  0  0  0  0  0  0  0  0
    0.8427    0.1870    0.4267 H   0  0  0  0  0  0  0  0  0  0  0  0
    0.3426   -0.4296   -1.1705 H   0  0  0  0  0  0  0  0  0  0  0  0
    3.0131    1.0047   -0.5711 H   0  0  0  0  0  0  0  0  0  0  0  0
    2.5186    0.3679   -2.1608 H   0  0  0  0  0  0  0  0  0  0  0  0
    4.8191    0.4166   -1.9274 H   0  0  0  0  0  0  0  0  0  0  0  0
    7.1491   -0.3103   -2.2108 H   0  0  0  0  0  0  0  0  0  0  0  0
    8.9309   -2.0101   -0.6879 H   0  0  0  0  0  0  0  0  0  0  0  0
    8.2758   -4.5956   -1.5228 H   0  0  0  0  0  0  0  0  0  0  0  0
   11.1337   -2.4071   -2.4618 H   0  0  0  0  0  0  0  0  0  0  0  0
    9.2796   -1.5436   -6.7979 H   0  0  0  0  0  0  0  0  0  0  0  0
    7.9327   -2.7101   -6.6023 H   0  0  0  0  0  0  0  0  0  0  0  0
    9.6075   -3.2999   -6.8461 H   0  0  0  0  0  0  0  0  0  0  0  0
    7.1721   -2.6361   -4.2067 H   0  0  0  0  0  0  0  0  0  0  0  0
    6.2420   -4.0023   -0.1767 H   0  0  0  0  0  0  0  0  0  0  0  0
    3.1288   -4.7120   -1.2806 H   0  0  0  0  0  0  0  0  0  0  0  0
    2.0627   -3.3185   -0.9473 H   0  0  0  0  0  0  0  0  0  0  0  0
    2.5248   -5.6978    0.9636 H   0  0  0  0  0  0  0  0  0  0  0  0
    1.0684   -5.4404   -0.0411 H   0  0  0  0  0  0  0  0  0  0  0  0
    1.4583   -4.3057    1.2837 H   0  0  0  0  0  0  0  0  0  0  0  0
  1  2  1  0
  1 21  1  0
  1 22  1  0
  1 23  1  0
  2  3  1  0
  2 24  1  0
  2 25  1  0
  3  4  1  0
  4  5  2  0
  4 17  1  0
  5  6  1  0
  5 26  1  0
  6  7  2  0
  6 27  1  0
  7  8  1  0
  7 16  1  0
  8  9  1  0
  8 10  1  0
  8 28  1  1
  9 29  1  0
 10 11  1  0
 10 15  2  0
 11 12  2  0
 11 30  1  0
 12 13  1  0
 13 14  1  0
 13 15  1  0
 14 31  1  0
 14 32  1  0
 14 33  1  0
 15 34  1  0
 16 17  2  0
 16 35  1  0
 17 18  1  0
 18 19  1  0
 19 20  1  0
 19 36  1  0
 19 37  1  0
 20 38  1  0
 20 39  1  0
 20 40  1  0
M  END

