
     RDKit          3D

 32 32  0  0  0  0  0  0  0  0999 V2000
    2.5434    0.4585    1.6111 C   0  0  0  0  0  0  0  0  0  0  0  0
    2.4039   -0.2836    0.2735 C   0  0  1  0  0  0  0  0  0  0  0  0
    0.9641   -0.7753    0.0817 C   0  0  0  0  0  0  0  0  0  0  0  0
    2.8572    0.5721   -0.9457 C   0  0  1  0  0  0  0  0  0  0  0  0
    2.1412    1.8481   -0.9422 N   0  0  0  0  0  0  0  0  0  0  0  0
    1.8808    2.4722   -2.1868 N   0  0  0  0  0  0  0  0  0  0  0  0
    4.4187    0.6665   -1.0366 C   0  0  1  0  0  0  0  0  0  0  0  0
    5.0602   -0.6298   -1.5858 C   0  0  0  0  0  0  0  0  0  0  0  0
    4.8815   -0.7530   -3.1074 C   0  0  0  0  0  0  0  0  0  0  0  0
    5.3132    0.5330   -3.8115 C   0  0  0  0  0  0  0  0  0  0  0  0
    4.6683    1.6716   -3.2671 O   0  0  0  0  0  0  0  0  0  0  0  0
    4.9352    1.8392   -1.8835 C   0  0  0  0  0  0  0  0  0  0  0  0
    2.2850   -0.2058    2.4512 H   0  0  0  0  0  0  0  0  0  0  0  0
    1.8613    1.3227    1.6501 H   0  0  0  0  0  0  0  0  0  0  0  0
    3.5685    0.8225    1.7900 H   0  0  0  0  0  0  0  0  0  0  0  0
    3.0611   -1.1708    0.3135 H   0  0  0  0  0  0  0  0  0  0  0  0
    0.2862    0.0840   -0.0410 H   0  0  0  0  0  0  0  0  0  0  0  0
    0.6214   -1.3644    0.9478 H   0  0  0  0  0  0  0  0  0  0  0  0
    0.8712   -1.4115   -0.8141 H   0  0  0  0  0  0  0  0  0  0  0  0
    2.4990    0.0517   -1.8491 H   0  0  0  0  0  0  0  0  0  0  0  0
    2.5772    2.5279   -0.3232 H   0  0  0  0  0  0  0  0  0  0  0  0
    1.0079    2.0965   -2.5569 H   0  0  0  0  0  0  0  0  0  0  0  0
    2.6157    2.2817   -2.8754 H   0  0  0  0  0  0  0  0  0  0  0  0
    4.8008    0.8370   -0.0141 H   0  0  0  0  0  0  0  0  0  0  0  0
    4.6513   -1.5191   -1.0800 H   0  0  0  0  0  0  0  0  0  0  0  0
    6.1402   -0.6157   -1.3524 H   0  0  0  0  0  0  0  0  0  0  0  0
    3.8261   -0.9583   -3.3544 H   0  0  0  0  0  0  0  0  0  0  0  0
    5.4661   -1.6031   -3.4981 H   0  0  0  0  0  0  0  0  0  0  0  0
    5.0619    0.5109   -4.8831 H   0  0  0  0  0  0  0  0  0  0  0  0
    6.4141    0.6576   -3.7279 H   0  0  0  0  0  0  0  0  0  0  0  0
    4.4692    2.7915   -1.5924 H   0  0  0  0  0  0  0  0  0  0  0  0
    6.0291    1.9444   -1.7273 H   0  0  0  0  0  0  0  0  0  0  0  0
  1  2  1  0
  1 13  1  0
  1 14  1  0
  1 15  1  0
  2  3  1  0
  2  4  1  0
  2 16  1  1
  3 17  1  0
  3 18  1  0
  3 19  1  0
  4  5  1  0
  4  7  1  0
  4 20  1  6
  5  6  1  0
  5 21  1  0
  6 22  1  0
  6 23  1  0
  7  8  1  0
  7 12  1  0
  7 24  1  1
  8  9  1  0
  8 25  1  0
  8 26  1  0
  9 10  1  0
  9 27  1  0
  9 28  1  0
 10 11  1  0
 10 29  1  0
 10 30  1  0
 11 12  1  0
 12 31  1  0
 12 32  1  0
M  END

