
     RDKit          3D

 38 38  0  0  0  0  0  0  0  0999 V2000
    0.7719    1.8996   -1.2388 C   0  0  0  0  0  0  0  0  0  0  0  0
    2.1540    1.8997   -1.4751 O   0  0  0  0  0  0  0  0  0  0  0  0
    2.7752    0.6719   -1.2143 C   0  0  0  0  0  0  0  0  0  0  0  0
    4.2613    0.7506   -1.4788 C   0  0  0  0  0  0  0  0  0  0  0  0
    4.8716    1.9463   -1.8785 C   0  0  0  0  0  0  0  0  0  0  0  0
    6.2460    1.9936   -2.1137 C   0  0  0  0  0  0  0  0  0  0  0  0
    7.0449    0.8542   -1.9426 C   0  0  0  0  0  0  0  0  0  0  0  0
    8.5173    0.9910   -2.2144 C   0  0  0  0  0  0  0  0  0  0  0  0
    8.9764    1.9536   -2.8150 O   0  0  0  0  0  0  0  0  0  0  0  0
    9.3165   -0.0273   -1.7574 N   0  0  0  0  0  0  0  0  0  0  0  0
   10.7598    0.0401   -1.8530 C   0  0  1  0  0  0  0  0  0  0  0  0
   11.3256   -0.2412   -0.4541 C   0  0  0  0  0  0  0  0  0  0  0  0
   10.7941   -0.9943    0.3185 O   0  0  0  0  0  0  0  0  0  0  0  0
   12.4800    0.3733   -0.1323 O   0  0  0  0  0  0  0  0  0  0  0  0
   11.3480   -0.9578   -2.9002 C   0  0  1  0  0  0  0  0  0  0  0  0
   10.6916   -0.7550   -4.2700 C   0  0  0  0  0  0  0  0  0  0  0  0
   12.8758   -0.8541   -3.0046 C   0  0  0  0  0  0  0  0  0  0  0  0
    6.4296   -0.3477   -1.5522 C   0  0  0  0  0  0  0  0  0  0  0  0
    5.0554   -0.3962   -1.3244 C   0  0  0  0  0  0  0  0  0  0  0  0
    0.3910    2.9040   -1.4731 H   0  0  0  0  0  0  0  0  0  0  0  0
    0.5317    1.6681   -0.1810 H   0  0  0  0  0  0  0  0  0  0  0  0
    0.2418    1.1630   -1.8765 H   0  0  0  0  0  0  0  0  0  0  0  0
    2.3325   -0.1336   -1.8408 H   0  0  0  0  0  0  0  0  0  0  0  0
    2.6069    0.3641   -0.1584 H   0  0  0  0  0  0  0  0  0  0  0  0
    4.2540    2.8358   -2.0053 H   0  0  0  0  0  0  0  0  0  0  0  0
    6.7300    2.9175   -2.4355 H   0  0  0  0  0  0  0  0  0  0  0  0
    8.9616   -0.6837   -1.0690 H   0  0  0  0  0  0  0  0  0  0  0  0
   11.0058    1.0671   -2.1737 H   0  0  0  0  0  0  0  0  0  0  0  0
   12.7507    0.9767   -0.8393 H   0  0  0  0  0  0  0  0  0  0  0  0
   11.0951   -1.9714   -2.5382 H   0  0  0  0  0  0  0  0  0  0  0  0
   10.8826    0.2587   -4.6575 H   0  0  0  0  0  0  0  0  0  0  0  0
    9.6024   -0.8933   -4.2202 H   0  0  0  0  0  0  0  0  0  0  0  0
   11.0915   -1.4808   -4.9958 H   0  0  0  0  0  0  0  0  0  0  0  0
   13.1833    0.1587   -3.3222 H   0  0  0  0  0  0  0  0  0  0  0  0
   13.2546   -1.5553   -3.7641 H   0  0  0  0  0  0  0  0  0  0  0  0
   13.3873   -1.0901   -2.0594 H   0  0  0  0  0  0  0  0  0  0  0  0
    7.0123   -1.2660   -1.4478 H   0  0  0  0  0  0  0  0  0  0  0  0
    4.5933   -1.3429   -1.0280 H   0  0  0  0  0  0  0  0  0  0  0  0
  1  2  1  0
  1 20  1  0
  1 21  1  0
  1 22  1  0
  2  3  1  0
  3  4  1  0
  3 23  1  0
  3 24  1  0
  4  5  2  0
  4 19  1  0
  5  6  1  0
  5 25  1  0
  6  7  2  0
  6 26  1  0
  7  8  1  0
  7 18  1  0
  8  9  2  0
  8 10  1  0
 10 11  1  0
 10 27  1  0
 11 12  1  0
 11 15  1  0
 11 28  1  6
 12 13  2  0
 12 14  1  0
 14 29  1  0
 15 16  1  0
 15 17  1  0
 15 30  1  1
 16 31  1  0
 16 32  1  0
 16 33  1  0
 17 34  1  0
 17 35  1  0
 17 36  1  0
 18 19  2  0
 18 37  1  0
 19 38  1  0
M  END

