
     RDKit          3D

 71 77  0  0  0  0  0  0  0  0999 V2000
    1.3920    0.5063    0.7602 N   0  0  0  0  0  0  0  0  0  0  0  0
    2.7306    0.4987    0.4288 C   0  0  0  0  0  0  0  0  0  0  0  0
    3.4199    1.7017    0.1592 C   0  0  0  0  0  0  0  0  0  0  0  0
    4.7773    1.6962   -0.1326 C   0  0  0  0  0  0  0  0  0  0  0  0
    5.5163    0.4917   -0.1709 C   0  0  0  0  0  0  0  0  0  0  0  0
    6.9076    0.4850   -0.4724 C   0  0  0  0  0  0  0  0  0  0  0  0
    8.1025    0.4723   -0.7311 C   0  0  0  0  0  0  0  0  0  0  0  0
    9.4923    0.4245   -1.0294 C   0  0  0  0  0  0  0  0  0  0  0  0
   10.1556   -0.8229   -1.0533 C   0  0  0  0  0  0  0  0  0  0  0  0
   11.5098   -0.9156   -1.3404 C   0  0  0  0  0  0  0  0  0  0  0  0
   12.2760    0.2335   -1.6194 C   0  0  0  0  0  0  0  0  0  0  0  0
   13.6769    0.1615   -1.9191 C   0  0  0  0  0  0  0  0  0  0  0  0
   14.4030    1.2873   -2.1870 C   0  0  0  0  0  0  0  0  0  0  0  0
   13.7904    2.5849   -2.1784 C   0  0  0  0  0  0  0  0  0  0  0  0
   14.5219    3.7581   -2.4519 C   0  0  0  0  0  0  0  0  0  0  0  0
   13.9098    5.0028   -2.4376 C   0  0  0  0  0  0  0  0  0  0  0  0
   12.5342    5.1405   -2.1492 C   0  0  0  0  0  0  0  0  0  0  0  0
   11.9490    6.4380   -2.1439 C   0  0  0  0  0  0  0  0  0  0  0  0
   11.4701    7.5620   -2.1444 C   0  0  0  0  0  0  0  0  0  0  0  0
   10.9168    8.8753   -2.1435 C   0  0  0  0  0  0  0  0  0  0  0  0
    9.5460    9.0892   -1.8736 C   0  0  0  0  0  0  0  0  0  0  0  0
    8.9988   10.3681   -1.8820 C   0  0  0  0  0  0  0  0  0  0  0  0
    9.8189   11.4792   -2.1372 C   0  0  0  0  0  0  0  0  0  0  0  0
    9.2844   12.7950   -2.1829 N   0  0  0  0  0  0  0  0  0  0  0  0
    8.4811   13.5177   -0.9040 S   0  0  1  0  0  0  0  0  0  0  0  0
    8.0608   14.8342   -1.3597 O   0  0  0  0  0  0  0  0  0  0  0  0
    7.5444   12.5407   -0.3564 O   0  0  0  0  0  0  0  0  0  0  0  0
    9.7082   13.8020    0.4290 C   0  0  0  0  0  0  0  0  0  0  0  0
    9.5692   13.0115    1.5744 C   0  0  0  0  0  0  0  0  0  0  0  0
   10.3861   13.2131    2.6889 C   0  0  0  0  0  0  0  0  0  0  0  0
   11.3254   14.2395    2.6512 C   0  0  0  0  0  0  0  0  0  0  0  0
   12.1914   14.4764    3.8330 N   0  0  0  0  0  0  0  0  0  0  0  0
   12.0219   13.7531    4.7977 O   0  0  0  0  0  0  0  0  0  0  0  0
   13.0085   15.3755    3.7517 O   0  0  0  0  0  0  0  0  0  0  0  0
   11.4784   15.0612    1.5381 C   0  0  0  0  0  0  0  0  0  0  0  0
   10.6772   14.8217    0.4253 C   0  0  0  0  0  0  0  0  0  0  0  0
   10.9424   15.6824   -0.7512 N   0  0  0  0  0  0  0  0  0  0  0  0
   10.9088   15.1560   -1.8531 O   0  0  0  0  0  0  0  0  0  0  0  0
   11.2290   16.8403   -0.5340 O   0  0  0  0  0  0  0  0  0  0  0  0
   11.1853   11.2844   -2.4002 C   0  0  0  0  0  0  0  0  0  0  0  0
   11.7243   10.0019   -2.4160 C   0  0  0  0  0  0  0  0  0  0  0  0
   11.7597    3.9749   -1.8679 C   0  0  0  0  0  0  0  0  0  0  0  0
   10.3589    4.0380   -1.5679 C   0  0  0  0  0  0  0  0  0  0  0  0
    9.6343    2.9109   -1.3009 C   0  0  0  0  0  0  0  0  0  0  0  0
   10.2377    1.6104   -1.3070 C   0  0  0  0  0  0  0  0  0  0  0  0
   11.6326    1.5119   -1.6025 C   0  0  0  0  0  0  0  0  0  0  0  0
   12.3935    2.6933   -1.8831 C   0  0  0  0  0  0  0  0  0  0  0  0
    4.8212   -0.7094    0.0994 C   0  0  0  0  0  0  0  0  0  0  0  0
    3.4639   -0.7079    0.3916 C   0  0  0  0  0  0  0  0  0  0  0  0
    0.8509    1.3291    0.5258 H   0  0  0  0  0  0  0  0  0  0  0  0
    0.8819   -0.3653    0.6894 H   0  0  0  0  0  0  0  0  0  0  0  0
    2.8749    2.6496    0.1838 H   0  0  0  0  0  0  0  0  0  0  0  0
    5.2870    2.6397   -0.3391 H   0  0  0  0  0  0  0  0  0  0  0  0
    9.5790   -1.7250   -0.8398 H   0  0  0  0  0  0  0  0  0  0  0  0
   11.9968   -1.8943   -1.3519 H   0  0  0  0  0  0  0  0  0  0  0  0
   14.1565   -0.8210   -1.9289 H   0  0  0  0  0  0  0  0  0  0  0  0
   15.4701    1.2173   -2.4139 H   0  0  0  0  0  0  0  0  0  0  0  0
   15.5884    3.6789   -2.6781 H   0  0  0  0  0  0  0  0  0  0  0  0
   14.4921    5.9012   -2.6517 H   0  0  0  0  0  0  0  0  0  0  0  0
    8.9035    8.2299   -1.6720 H   0  0  0  0  0  0  0  0  0  0  0  0
    7.9368   10.5192   -1.6918 H   0  0  0  0  0  0  0  0  0  0  0  0
    9.8748   13.4961   -2.6305 H   0  0  0  0  0  0  0  0  0  0  0  0
    8.7934   12.2449    1.5832 H   0  0  0  0  0  0  0  0  0  0  0  0
   10.2955   12.5988    3.5845 H   0  0  0  0  0  0  0  0  0  0  0  0
   12.2096   15.8681    1.5393 H   0  0  0  0  0  0  0  0  0  0  0  0
   11.8250   12.1489   -2.5967 H   0  0  0  0  0  0  0  0  0  0  0  0
   12.7853    9.8601   -2.6300 H   0  0  0  0  0  0  0  0  0  0  0  0
    9.8752    5.0162   -1.5569 H   0  0  0  0  0  0  0  0  0  0  0  0
    8.5689    2.9841   -1.0754 H   0  0  0  0  0  0  0  0  0  0  0  0
    5.3665   -1.6553    0.0751 H   0  0  0  0  0  0  0  0  0  0  0  0
    2.9533   -1.6527    0.5988 H   0  0  0  0  0  0  0  0  0  0  0  0
  1  2  1  0
  1 50  1  0
  1 51  1  0
  2  3  2  0
  2 49  1  0
  3  4  1  0
  3 52  1  0
  4  5  2  0
  4 53  1  0
  5  6  1  0
  5 48  1  0
  6  7  3  0
  7  8  1  0
  8  9  2  0
  8 45  1  0
  9 10  1  0
  9 54  1  0
 10 11  2  0
 10 55  1  0
 11 12  1  0
 11 46  1  0
 12 13  2  0
 12 56  1  0
 13 14  1  0
 13 57  1  0
 14 15  2  0
 14 47  1  0
 15 16  1  0
 15 58  1  0
 16 17  2  0
 16 59  1  0
 17 18  1  0
 17 42  1  0
 18 19  3  0
 19 20  1  0
 20 21  2  0
 20 41  1  0
 21 22  1  0
 21 60  1  0
 22 23  2  0
 22 61  1  0
 23 24  1  0
 23 40  1  0
 25 24  1  6
 24 62  1  0
 25 26  2  0
 25 27  2  0
 25 28  1  0
 28 29  2  0
 28 36  1  0
 29 30  1  0
 29 63  1  0
 30 31  2  0
 30 64  1  0
 31 32  1  0
 31 35  1  0
 32 33  2  0
 32 34  1  0
 35 36  2  0
 35 65  1  0
 36 37  1  0
 37 38  2  0
 37 39  1  0
 40 41  2  0
 40 66  1  0
 41 67  1  0
 42 43  2  0
 42 47  1  0
 43 44  1  0
 43 68  1  0
 44 45  2  0
 44 69  1  0
 45 46  1  0
 46 47  2  0
 48 49  2  0
 48 70  1  0
 49 71  1  0
M  CHG  4  32   1  34  -1  37   1  39  -1
M  END

