
     RDKit          3D

 54 57  0  0  0  0  0  0  0  0999 V2000
    2.7198   -2.8403   -2.0697 O   0  0  0  0  0  0  0  0  0  0  0  0
    3.4759   -3.3758   -1.2635 C   0  0  0  0  0  0  0  0  0  0  0  0
    4.5685   -4.2944   -1.7691 C   0  0  0  0  0  0  0  0  0  0  0  0
    4.5160   -4.6532   -3.1262 C   0  0  0  0  0  0  0  0  0  0  0  0
    5.5196   -5.4729   -3.6382 C   0  0  0  0  0  0  0  0  0  0  0  0
    6.5415   -5.8985   -2.7854 C   0  0  0  0  0  0  0  0  0  0  0  0
    6.5080   -5.4818   -1.4514 C   0  0  0  0  0  0  0  0  0  0  0  0
    5.5470   -4.7019   -0.9537 N   0  0  0  0  0  0  0  0  0  0  0  0
    3.3387   -3.1341    0.0739 N   0  0  0  0  0  0  0  0  0  0  0  0
    4.0090   -3.7459    1.2370 C   0  0  0  0  0  0  0  0  0  0  0  0
    3.1342   -3.3132    2.4207 C   0  0  0  0  0  0  0  0  0  0  0  0
    2.5717   -1.9603    1.9716 C   0  0  0  0  0  0  0  0  0  0  0  0
    2.2978   -2.1809    0.4681 C   0  0  2  0  0  0  0  0  0  0  0  0
    0.9166   -2.7233    0.2092 C   0  0  0  0  0  0  0  0  0  0  0  0
    0.4701   -3.9349    0.3575 N   0  0  0  0  0  0  0  0  0  0  0  0
   -0.8621   -3.8045    0.0298 C   0  0  0  0  0  0  0  0  0  0  0  0
   -1.8260   -4.9465    0.0273 C   0  0  0  0  0  0  0  0  0  0  0  0
   -1.9139   -5.6376    1.3860 C   0  0  0  0  0  0  0  0  0  0  0  0
   -2.7966   -6.7287    1.2797 O   0  0  0  0  0  0  0  0  0  0  0  0
   -2.9583   -7.4516    2.4818 C   0  0  0  0  0  0  0  0  0  0  0  0
   -3.9175   -8.6329    2.3249 C   0  0  1  0  0  0  0  0  0  0  0  0
   -5.3665   -8.2299    1.9694 C   0  0  0  0  0  0  0  0  0  0  0  0
   -5.5693   -8.0060    0.4677 C   0  0  0  0  0  0  0  0  0  0  0  0
   -5.1437   -9.1270   -0.2853 O   0  0  0  0  0  0  0  0  0  0  0  0
   -3.7639   -9.3952   -0.1178 C   0  0  0  0  0  0  0  0  0  0  0  0
   -3.4291   -9.7203    1.3413 C   0  0  0  0  0  0  0  0  0  0  0  0
   -1.2160   -2.5836   -0.2852 N   0  0  0  0  0  0  0  0  0  0  0  0
   -0.0317   -1.8606   -0.1650 O   0  0  0  0  0  0  0  0  0  0  0  0
    3.6964   -4.2753   -3.7378 H   0  0  0  0  0  0  0  0  0  0  0  0
    5.5075   -5.7745   -4.6887 H   0  0  0  0  0  0  0  0  0  0  0  0
    7.3508   -6.5394   -3.1426 H   0  0  0  0  0  0  0  0  0  0  0  0
    7.2950   -5.7935   -0.7547 H   0  0  0  0  0  0  0  0  0  0  0  0
    5.0406   -3.3709    1.3269 H   0  0  0  0  0  0  0  0  0  0  0  0
    4.0729   -4.8352    1.1278 H   0  0  0  0  0  0  0  0  0  0  0  0
    3.7035   -3.2552    3.3601 H   0  0  0  0  0  0  0  0  0  0  0  0
    2.3119   -4.0317    2.5604 H   0  0  0  0  0  0  0  0  0  0  0  0
    3.3272   -1.1653    2.0811 H   0  0  0  0  0  0  0  0  0  0  0  0
    1.6723   -1.6455    2.5201 H   0  0  0  0  0  0  0  0  0  0  0  0
    2.3837   -1.2528   -0.1154 H   0  0  0  0  0  0  0  0  0  0  0  0
   -1.5006   -5.6878   -0.7214 H   0  0  0  0  0  0  0  0  0  0  0  0
   -2.8158   -4.5767   -0.2756 H   0  0  0  0  0  0  0  0  0  0  0  0
   -2.2703   -4.9214    2.1557 H   0  0  0  0  0  0  0  0  0  0  0  0
   -0.9061   -5.9755    1.7002 H   0  0  0  0  0  0  0  0  0  0  0  0
   -3.3402   -6.7764    3.2772 H   0  0  0  0  0  0  0  0  0  0  0  0
   -1.9719   -7.8268    2.8294 H   0  0  0  0  0  0  0  0  0  0  0  0
   -3.9370   -9.0835    3.3336 H   0  0  0  0  0  0  0  0  0  0  0  0
   -5.6677   -7.3266    2.5279 H   0  0  0  0  0  0  0  0  0  0  0  0
   -6.0417   -9.0432    2.2871 H   0  0  0  0  0  0  0  0  0  0  0  0
   -5.0283   -7.0974    0.1436 H   0  0  0  0  0  0  0  0  0  0  0  0
   -6.6384   -7.8674    0.2413 H   0  0  0  0  0  0  0  0  0  0  0  0
   -3.1604   -8.5345   -0.4621 H   0  0  0  0  0  0  0  0  0  0  0  0
   -3.5336  -10.2561   -0.7652 H   0  0  0  0  0  0  0  0  0  0  0  0
   -2.3427   -9.8840    1.4500 H   0  0  0  0  0  0  0  0  0  0  0  0
   -3.9243  -10.6719    1.6007 H   0  0  0  0  0  0  0  0  0  0  0  0
  1  2  2  0
  2  3  1  0
  2  9  1  0
  3  4  2  0
  3  8  1  0
  4  5  1  0
  4 29  1  0
  5  6  2  0
  5 30  1  0
  6  7  1  0
  6 31  1  0
  7  8  2  0
  7 32  1  0
  9 10  1  0
  9 13  1  0
 10 11  1  0
 10 33  1  0
 10 34  1  0
 11 12  1  0
 11 35  1  0
 11 36  1  0
 12 13  1  0
 12 37  1  0
 12 38  1  0
 13 14  1  0
 13 39  1  6
 14 15  2  0
 14 28  1  0
 15 16  1  0
 16 17  1  0
 16 27  2  0
 17 18  1  0
 17 40  1  0
 17 41  1  0
 18 19  1  0
 18 42  1  0
 18 43  1  0
 19 20  1  0
 20 21  1  0
 20 44  1  0
 20 45  1  0
 21 22  1  0
 21 26  1  0
 21 46  1  1
 22 23  1  0
 22 47  1  0
 22 48  1  0
 23 24  1  0
 23 49  1  0
 23 50  1  0
 24 25  1  0
 25 26  1  0
 25 51  1  0
 25 52  1  0
 26 53  1  0
 26 54  1  0
 27 28  1  0
M  END

