
     RDKit          3D

 65 69  0  0  0  0  0  0  0  0999 V2000
    3.8982    1.8547    0.1775 C   0  0  0  0  0  0  0  0  0  0  0  0
    3.3309    1.4548   -1.1739 C   0  0  0  0  0  0  0  0  0  0  0  0
    3.8924    0.2118   -1.6407 O   0  0  0  0  0  0  0  0  0  0  0  0
    3.3431   -0.9194   -1.2304 C   0  0  0  0  0  0  0  0  0  0  0  0
    2.3642   -0.9266   -0.4706 O   0  0  0  0  0  0  0  0  0  0  0  0
    3.9433   -2.1660   -1.7348 C   0  0  0  0  0  0  0  0  0  0  0  0
    3.3307   -3.3653   -1.3340 C   0  0  0  0  0  0  0  0  0  0  0  0
    2.2903   -3.4085   -0.5437 O   0  0  0  0  0  0  0  0  0  0  0  0
    3.8468   -4.6448   -1.8064 C   0  0  0  0  0  0  0  0  0  0  0  0
    3.2614   -5.7831   -1.4050 N   0  0  0  0  0  0  0  0  0  0  0  0
    3.7465   -6.9268   -1.8551 C   0  0  0  0  0  0  0  0  0  0  0  0
    4.8273   -7.0411   -2.7577 C   0  0  0  0  0  0  0  0  0  0  0  0
    5.2934   -8.3832   -3.2752 C   0  0  0  0  0  0  0  0  0  0  0  0
    4.9438   -8.6470   -4.7337 C   0  0  0  0  0  0  0  0  0  0  0  0
    5.9414   -8.9459   -5.6726 C   0  0  0  0  0  0  0  0  0  0  0  0
    5.6269   -9.2106   -7.0088 C   0  0  0  0  0  0  0  0  0  0  0  0
    4.2931   -9.1710   -7.4053 C   0  0  0  0  0  0  0  0  0  0  0  0
    3.9805   -9.4215   -8.6855 F   0  0  0  0  0  0  0  0  0  0  0  0
    3.2750   -8.8761   -6.5004 C   0  0  0  0  0  0  0  0  0  0  0  0
    3.6092   -8.6158   -5.1701 C   0  0  0  0  0  0  0  0  0  0  0  0
    5.4360   -5.8556   -3.1738 C   0  0  0  0  0  0  0  0  0  0  0  0
    4.9565   -4.6180   -2.6767 C   0  0  0  0  0  0  0  0  0  0  0  0
    5.5671   -3.4367   -3.0343 N   0  0  0  0  0  0  0  0  0  0  0  0
    5.1360   -2.1613   -2.5976 C   0  0  0  0  0  0  0  0  0  0  0  0
    5.7694   -1.1802   -2.9478 O   0  0  0  0  0  0  0  0  0  0  0  0
    6.7848   -3.5053   -3.8377 C   0  0  0  0  0  0  0  0  0  0  0  0
    6.7283   -4.6956   -4.7824 C   0  0  1  0  0  0  0  0  0  0  0  0
    7.9998   -4.8728   -5.6100 C   0  0  0  0  0  0  0  0  0  0  0  0
    9.2388   -4.8579   -4.8336 N   0  0  0  0  0  0  0  0  0  0  0  0
    9.6492   -6.1774   -4.3654 C   0  0  0  0  0  0  0  0  0  0  0  0
   10.2893   -4.0777   -5.4828 C   0  0  1  0  0  0  0  0  0  0  0  0
    9.8663   -2.7525   -5.6861 O   0  0  0  0  0  0  0  0  0  0  0  0
   11.5685   -4.1052   -4.6935 C   0  0  0  0  0  0  0  0  0  0  0  0
   12.7179   -4.5836   -5.0330 N   0  0  0  0  0  0  0  0  0  0  0  0
   13.5856   -4.3034   -3.9859 N   0  0  0  0  0  0  0  0  0  0  0  0
   12.8994   -3.6679   -3.0911 C   0  0  0  0  0  0  0  0  0  0  0  0
   13.3436   -3.1284   -1.7827 C   0  0  0  0  0  0  0  0  0  0  0  0
   11.5993   -3.5066   -3.4730 O   0  0  0  0  0  0  0  0  0  0  0  0
    6.4792   -5.9050   -4.0365 O   0  0  0  0  0  0  0  0  0  0  0  0
    3.5195    2.8504    0.4588 H   0  0  0  0  0  0  0  0  0  0  0  0
    4.9976    1.9011    0.1423 H   0  0  0  0  0  0  0  0  0  0  0  0
    3.5961    1.1414    0.9583 H   0  0  0  0  0  0  0  0  0  0  0  0
    3.6062    2.1804   -1.9521 H   0  0  0  0  0  0  0  0  0  0  0  0
    2.2358    1.3635   -1.1343 H   0  0  0  0  0  0  0  0  0  0  0  0
    2.0700   -2.4480   -0.3213 H   0  0  0  0  0  0  0  0  0  0  0  0
    3.2585   -7.8435   -1.5003 H   0  0  0  0  0  0  0  0  0  0  0  0
    4.8438   -9.1686   -2.6451 H   0  0  0  0  0  0  0  0  0  0  0  0
    6.3843   -8.4673   -3.1520 H   0  0  0  0  0  0  0  0  0  0  0  0
    6.9874   -8.9743   -5.3563 H   0  0  0  0  0  0  0  0  0  0  0  0
    6.3988   -9.4463   -7.7441 H   0  0  0  0  0  0  0  0  0  0  0  0
    2.2395   -8.8554   -6.8459 H   0  0  0  0  0  0  0  0  0  0  0  0
    2.8117   -8.3817   -4.4596 H   0  0  0  0  0  0  0  0  0  0  0  0
    7.6733   -3.5979   -3.1919 H   0  0  0  0  0  0  0  0  0  0  0  0
    6.8742   -2.5631   -4.3938 H   0  0  0  0  0  0  0  0  0  0  0  0
    5.8833   -4.5669   -5.4844 H   0  0  0  0  0  0  0  0  0  0  0  0
    8.0250   -4.0327   -6.3181 H   0  0  0  0  0  0  0  0  0  0  0  0
    7.8972   -5.8030   -6.2041 H   0  0  0  0  0  0  0  0  0  0  0  0
    8.7958   -6.6614   -3.8747 H   0  0  0  0  0  0  0  0  0  0  0  0
   10.4590   -6.0963   -3.6261 H   0  0  0  0  0  0  0  0  0  0  0  0
   10.0009   -6.8394   -5.1855 H   0  0  0  0  0  0  0  0  0  0  0  0
   10.5501   -4.4627   -6.4895 H   0  0  0  0  0  0  0  0  0  0  0  0
    9.6707   -2.3723   -4.8152 H   0  0  0  0  0  0  0  0  0  0  0  0
   14.4073   -3.3602   -1.6481 H   0  0  0  0  0  0  0  0  0  0  0  0
   12.7674   -3.5735   -0.9561 H   0  0  0  0  0  0  0  0  0  0  0  0
   13.2031   -2.0366   -1.7396 H   0  0  0  0  0  0  0  0  0  0  0  0
  1  2  1  0
  1 40  1  0
  1 41  1  0
  1 42  1  0
  2  3  1  0
  2 43  1  0
  2 44  1  0
  3  4  1  0
  4  5  2  0
  4  6  1  0
  6  7  2  0
  6 24  1  0
  7  8  1  0
  7  9  1  0
  8 45  1  0
  9 10  2  0
  9 22  1  0
 10 11  1  0
 11 12  2  0
 11 46  1  0
 12 13  1  0
 12 21  1  0
 13 14  1  0
 13 47  1  0
 13 48  1  0
 14 15  2  0
 14 20  1  0
 15 16  1  0
 15 49  1  0
 16 17  2  0
 16 50  1  0
 17 18  1  0
 17 19  1  0
 19 20  2  0
 19 51  1  0
 20 52  1  0
 21 22  2  0
 21 39  1  0
 22 23  1  0
 23 24  1  0
 23 26  1  0
 24 25  2  0
 26 27  1  0
 26 53  1  0
 26 54  1  0
 27 28  1  0
 27 39  1  0
 27 55  1  6
 28 29  1  0
 28 56  1  0
 28 57  1  0
 29 30  1  0
 29 31  1  0
 30 58  1  0
 30 59  1  0
 30 60  1  0
 31 32  1  0
 31 33  1  0
 31 61  1  6
 32 62  1  0
 33 34  2  0
 33 38  1  0
 34 35  1  0
 35 36  2  0
 36 37  1  0
 36 38  1  0
 37 63  1  0
 37 64  1  0
 37 65  1  0
M  END

