
     RDKit          3D

 60 63  0  0  0  0  0  0  0  0999 V2000
    2.7875    2.5361   -3.5791 C   0  0  0  0  0  0  0  0  0  0  0  0
    3.5006    1.4896   -4.4357 C   0  0  0  0  0  0  0  0  0  0  0  0
    2.7818    0.2241   -4.5278 N   0  0  0  0  0  0  0  0  0  0  0  0
    1.7827   -0.0644   -5.4324 C   0  0  0  0  0  0  0  0  0  0  0  0
    1.3557   -1.3458   -5.1384 C   0  0  0  0  0  0  0  0  0  0  0  0
    0.2827   -2.0970   -5.8179 C   0  0  0  0  0  0  0  0  0  0  0  0
   -0.9237   -1.4412   -6.1335 C   0  0  0  0  0  0  0  0  0  0  0  0
   -1.9773   -2.0766   -6.7876 C   0  0  0  0  0  0  0  0  0  0  0  0
   -1.8403   -3.4218   -7.1367 C   0  0  0  0  0  0  0  0  0  0  0  0
   -3.1492   -4.2522   -7.9435 Cl  0  0  0  0  0  0  0  0  0  0  0  0
   -0.6635   -4.1137   -6.8482 C   0  0  0  0  0  0  0  0  0  0  0  0
    0.3850   -3.4513   -6.2022 C   0  0  0  0  0  0  0  0  0  0  0  0
    1.8513   -4.3734   -5.9494 Cl  0  0  0  0  0  0  0  0  0  0  0  0
    2.0712   -1.8299   -4.0673 N   0  0  0  0  0  0  0  0  0  0  0  0
    2.9127   -0.8817   -3.7153 C   0  0  0  0  0  0  0  0  0  0  0  0
    3.9030   -0.9557   -2.5875 C   0  0  0  0  0  0  0  0  0  0  0  0
    3.8782   -2.2724   -1.7992 C   0  0  0  0  0  0  0  0  0  0  0  0
    4.2947   -3.5382   -2.5785 C   0  0  0  0  0  0  0  0  0  0  0  0
    5.6558   -3.4548   -3.2353 C   0  0  0  0  0  0  0  0  0  0  0  0
    6.8360   -3.4989   -2.4724 C   0  0  0  0  0  0  0  0  0  0  0  0
    8.0941   -3.4058   -3.0705 C   0  0  0  0  0  0  0  0  0  0  0  0
    8.1793   -3.2718   -4.4575 C   0  0  0  0  0  0  0  0  0  0  0  0
    9.4251   -3.1142   -5.0616 O   0  0  0  0  0  0  0  0  0  0  0  0
   10.1657   -4.1823   -5.4301 C   0  0  0  0  0  0  0  0  0  0  0  0
   11.4089   -3.9070   -6.0228 C   0  0  0  0  0  0  0  0  0  0  0  0
   12.2140   -4.9591   -6.4177 C   0  0  0  0  0  0  0  0  0  0  0  0
   11.7973   -6.2932   -6.2636 C   0  0  0  0  0  0  0  0  0  0  0  0
   12.7691   -7.2754   -6.7679 N   0  0  0  0  0  0  0  0  0  0  0  0
   13.9361   -6.9455   -6.8258 O   0  0  0  0  0  0  0  0  0  0  0  0
   12.3733   -8.3798   -7.1564 O   0  0  0  0  0  0  0  0  0  0  0  0
   10.5472   -6.5976   -5.6627 C   0  0  0  0  0  0  0  0  0  0  0  0
    9.8918   -7.9457   -5.2883 C   0  0  0  0  0  0  0  0  0  0  0  0
    9.0560   -7.9630   -4.4187 O   0  0  0  0  0  0  0  0  0  0  0  0
   10.2131   -9.0323   -5.9643 O   0  0  0  0  0  0  0  0  0  0  0  0
    9.7659   -5.5112   -5.2444 C   0  0  0  0  0  0  0  0  0  0  0  0
    7.0286   -3.2245   -5.2432 C   0  0  0  0  0  0  0  0  0  0  0  0
    5.7765   -3.3156   -4.6280 C   0  0  0  0  0  0  0  0  0  0  0  0
    3.3706    3.4702   -3.5558 H   0  0  0  0  0  0  0  0  0  0  0  0
    2.6608    2.1867   -2.5427 H   0  0  0  0  0  0  0  0  0  0  0  0
    1.7895    2.7653   -3.9839 H   0  0  0  0  0  0  0  0  0  0  0  0
    4.5043    1.2832   -4.0359 H   0  0  0  0  0  0  0  0  0  0  0  0
    3.6440    1.8672   -5.4604 H   0  0  0  0  0  0  0  0  0  0  0  0
    1.4917    0.6356   -6.2121 H   0  0  0  0  0  0  0  0  0  0  0  0
   -1.0387   -0.3982   -5.8299 H   0  0  0  0  0  0  0  0  0  0  0  0
   -2.9020   -1.5434   -7.0122 H   0  0  0  0  0  0  0  0  0  0  0  0
   -0.5518   -5.1593   -7.1338 H   0  0  0  0  0  0  0  0  0  0  0  0
    3.7143   -0.1240   -1.8847 H   0  0  0  0  0  0  0  0  0  0  0  0
    4.9208   -0.7821   -2.9832 H   0  0  0  0  0  0  0  0  0  0  0  0
    2.8624   -2.4350   -1.4045 H   0  0  0  0  0  0  0  0  0  0  0  0
    4.5405   -2.1462   -0.9255 H   0  0  0  0  0  0  0  0  0  0  0  0
    3.5298   -3.7481   -3.3380 H   0  0  0  0  0  0  0  0  0  0  0  0
    4.2877   -4.3843   -1.8702 H   0  0  0  0  0  0  0  0  0  0  0  0
    6.7726   -3.6157   -1.3867 H   0  0  0  0  0  0  0  0  0  0  0  0
    9.0078   -3.4390   -2.4733 H   0  0  0  0  0  0  0  0  0  0  0  0
   11.7196   -2.8699   -6.1583 H   0  0  0  0  0  0  0  0  0  0  0  0
   13.1900   -4.7721   -6.8633 H   0  0  0  0  0  0  0  0  0  0  0  0
   10.9650   -8.8558   -6.5809 H   0  0  0  0  0  0  0  0  0  0  0  0
    8.8291   -5.7431   -4.7396 H   0  0  0  0  0  0  0  0  0  0  0  0
    7.1195   -3.1149   -6.3260 H   0  0  0  0  0  0  0  0  0  0  0  0
    4.8721   -3.2855   -5.2412 H   0  0  0  0  0  0  0  0  0  0  0  0
  1  2  1  0
  1 38  1  0
  1 39  1  0
  1 40  1  0
  2  3  1  0
  2 41  1  0
  2 42  1  0
  3  4  1  0
  3 15  1  0
  4  5  2  0
  4 43  1  0
  5  6  1  0
  5 14  1  0
  6  7  2  0
  6 12  1  0
  7  8  1  0
  7 44  1  0
  8  9  2  0
  8 45  1  0
  9 10  1  0
  9 11  1  0
 11 12  2  0
 11 46  1  0
 12 13  1  0
 14 15  2  0
 15 16  1  0
 16 17  1  0
 16 47  1  0
 16 48  1  0
 17 18  1  0
 17 49  1  0
 17 50  1  0
 18 19  1  0
 18 51  1  0
 18 52  1  0
 19 20  2  0
 19 37  1  0
 20 21  1  0
 20 53  1  0
 21 22  2  0
 21 54  1  0
 22 23  1  0
 22 36  1  0
 23 24  1  0
 24 25  2  0
 24 35  1  0
 25 26  1  0
 25 55  1  0
 26 27  2  0
 26 56  1  0
 27 28  1  0
 27 31  1  0
 28 29  2  0
 28 30  1  0
 31 32  1  0
 31 35  2  0
 32 33  2  0
 32 34  1  0
 34 57  1  0
 35 58  1  0
 36 37  2  0
 36 59  1  0
 37 60  1  0
M  CHG  2  28   1  30  -1
M  END

