
     RDKit          3D

 80 84  0  0  0  0  0  0  0  0999 V2000
    1.2013   -0.0673    0.1030 C   0  0  0  0  0  0  0  0  0  0  0  0
    3.0816    0.0837    0.1886 Si  0  0  1  0  0  4  0  0  0  0  0  0
    3.8798   -1.6262    0.2381 C   0  0  0  0  0  0  0  0  0  0  0  0
    3.7293    1.0732   -1.2835 C   0  0  0  0  0  0  0  0  0  0  0  0
    3.5304    0.9822    1.7444 C   0  0  0  0  0  0  0  0  0  0  0  0
    3.8300    1.5659    2.7787 C   0  0  0  0  0  0  0  0  0  0  0  0
    4.1864    2.2265    3.9936 C   0  0  0  0  0  0  0  0  0  0  0  0
    4.7230    1.4735    5.0488 C   0  0  0  0  0  0  0  0  0  0  0  0
    5.0903    2.0618    6.2678 C   0  0  0  0  0  0  0  0  0  0  0  0
    5.6294    1.2393    7.3032 C   0  0  0  0  0  0  0  0  0  0  0  0
    6.0903    0.5192    8.1802 C   0  0  0  0  0  0  0  0  0  0  0  0
    6.7841   -0.5799    9.4997 Si  0  0  1  0  0  4  0  0  0  0  0  0
    7.4841   -2.1279    8.6763 C   0  0  0  0  0  0  0  0  0  0  0  0
    8.1469    0.3606   10.4067 C   0  0  0  0  0  0  0  0  0  0  0  0
    5.3934   -1.0375   10.6919 C   0  0  0  0  0  0  0  0  0  0  0  0
    4.9192    3.4664    6.4516 C   0  0  0  0  0  0  0  0  0  0  0  0
    5.2745    4.1184    7.6735 C   0  0  0  0  0  0  0  0  0  0  0  0
    5.1049    5.4630    7.8457 C   0  0  0  0  0  0  0  0  0  0  0  0
    4.5680    6.2895    6.8016 C   0  0  0  0  0  0  0  0  0  0  0  0
    4.4120    7.7007    6.9355 C   0  0  0  0  0  0  0  0  0  0  0  0
    4.7151    8.4123    8.2276 C   0  0  0  0  0  0  0  0  0  0  0  0
    4.4121    7.9191    9.3020 O   0  0  0  0  0  0  0  0  0  0  0  0
    5.3878    9.7585    8.1890 C   0  0  0  0  0  0  0  0  0  0  0  0
    6.2047   10.1816    7.1260 C   0  0  0  0  0  0  0  0  0  0  0  0
    6.8588   11.4152    7.1862 C   0  0  0  0  0  0  0  0  0  0  0  0
    6.6956   12.2418    8.3014 C   0  0  0  0  0  0  0  0  0  0  0  0
    5.8883   11.8259    9.3676 C   0  0  0  0  0  0  0  0  0  0  0  0
    5.2490   10.5888    9.3163 C   0  0  0  0  0  0  0  0  0  0  0  0
    3.8848    8.4417    5.8749 C   0  0  0  0  0  0  0  0  0  0  0  0
    3.4905    7.8484    4.6638 C   0  0  0  0  0  0  0  0  0  0  0  0
    2.9362    8.6663    3.6336 C   0  0  0  0  0  0  0  0  0  0  0  0
    2.4624    9.3853    2.7623 C   0  0  0  0  0  0  0  0  0  0  0  0
    1.7411   10.4822    1.4564 Si  0  0  1  0  0  4  0  0  0  0  0  0
    3.1287   11.5270    0.7153 C   0  0  0  0  0  0  0  0  0  0  0  0
    0.9558    9.3933    0.1287 C   0  0  0  0  0  0  0  0  0  0  0  0
    0.4399   11.5902    2.2582 C   0  0  0  0  0  0  0  0  0  0  0  0
    3.6573    6.4446    4.4915 C   0  0  0  0  0  0  0  0  0  0  0  0
    3.2931    5.7903    3.2704 C   0  0  0  0  0  0  0  0  0  0  0  0
    3.4612    4.4452    3.1078 C   0  0  0  0  0  0  0  0  0  0  0  0
    4.0061    3.6325    4.1526 C   0  0  0  0  0  0  0  0  0  0  0  0
    4.3766    4.2510    5.3876 C   0  0  0  0  0  0  0  0  0  0  0  0
    4.2025    5.6669    5.5621 C   0  0  0  0  0  0  0  0  0  0  0  0
    0.8950   -0.5996   -0.8134 H   0  0  0  0  0  0  0  0  0  0  0  0
    0.7222    0.9250    0.0956 H   0  0  0  0  0  0  0  0  0  0  0  0
    0.8080   -0.6252    0.9679 H   0  0  0  0  0  0  0  0  0  0  0  0
    3.6358   -2.1965   -0.6739 H   0  0  0  0  0  0  0  0  0  0  0  0
    3.5245   -2.2053    1.1058 H   0  0  0  0  0  0  0  0  0  0  0  0
    4.9769   -1.5508    0.3084 H   0  0  0  0  0  0  0  0  0  0  0  0
    3.4838    0.5657   -2.2316 H   0  0  0  0  0  0  0  0  0  0  0  0
    4.8239    1.1895   -1.2336 H   0  0  0  0  0  0  0  0  0  0  0  0
    3.2836    2.0806   -1.3135 H   0  0  0  0  0  0  0  0  0  0  0  0
    4.8574    0.3993    4.9176 H   0  0  0  0  0  0  0  0  0  0  0  0
    8.2829   -1.8714    7.9620 H   0  0  0  0  0  0  0  0  0  0  0  0
    6.7008   -2.6736    8.1259 H   0  0  0  0  0  0  0  0  0  0  0  0
    7.9086   -2.8118    9.4304 H   0  0  0  0  0  0  0  0  0  0  0  0
    8.9539    0.6552    9.7167 H   0  0  0  0  0  0  0  0  0  0  0  0
    8.5891   -0.2649   11.2003 H   0  0  0  0  0  0  0  0  0  0  0  0
    7.7534    1.2761   10.8773 H   0  0  0  0  0  0  0  0  0  0  0  0
    4.5823   -1.5707   10.1703 H   0  0  0  0  0  0  0  0  0  0  0  0
    4.9599   -0.1394   11.1606 H   0  0  0  0  0  0  0  0  0  0  0  0
    5.7699   -1.6927   11.4956 H   0  0  0  0  0  0  0  0  0  0  0  0
    5.6865    3.5118    8.4818 H   0  0  0  0  0  0  0  0  0  0  0  0
    5.3633    5.9229    8.7972 H   0  0  0  0  0  0  0  0  0  0  0  0
    6.3476    9.5378    6.2562 H   0  0  0  0  0  0  0  0  0  0  0  0
    7.5001   11.7302    6.3592 H   0  0  0  0  0  0  0  0  0  0  0  0
    7.2020   13.2097    8.3433 H   0  0  0  0  0  0  0  0  0  0  0  0
    5.7635   12.4689   10.2425 H   0  0  0  0  0  0  0  0  0  0  0  0
    4.6323   10.2364   10.1453 H   0  0  0  0  0  0  0  0  0  0  0  0
    3.7468    9.5177    5.9874 H   0  0  0  0  0  0  0  0  0  0  0  0
    3.9062   10.8915    0.2614 H   0  0  0  0  0  0  0  0  0  0  0  0
    3.6099   12.1516    1.4851 H   0  0  0  0  0  0  0  0  0  0  0  0
    2.7356   12.1962   -0.0686 H   0  0  0  0  0  0  0  0  0  0  0  0
    1.7036    8.7305   -0.3361 H   0  0  0  0  0  0  0  0  0  0  0  0
    0.5097   10.0117   -0.6682 H   0  0  0  0  0  0  0  0  0  0  0  0
    0.1595    8.7609    0.5532 H   0  0  0  0  0  0  0  0  0  0  0  0
    0.8832   12.2134    3.0515 H   0  0  0  0  0  0  0  0  0  0  0  0
   -0.3673   10.9918    2.7106 H   0  0  0  0  0  0  0  0  0  0  0  0
   -0.0129   12.2630    1.5105 H   0  0  0  0  0  0  0  0  0  0  0  0
    2.8761    6.3964    2.4645 H   0  0  0  0  0  0  0  0  0  0  0  0
    3.1803    3.9627    2.1702 H   0  0  0  0  0  0  0  0  0  0  0  0
  1  2  1  0
  1 43  1  0
  1 44  1  0
  1 45  1  0
  2  3  1  0
  2  4  1  0
  2  5  1  1
  3 46  1  0
  3 47  1  0
  3 48  1  0
  4 49  1  0
  4 50  1  0
  4 51  1  0
  5  6  3  0
  6  7  1  0
  7  8  2  0
  7 40  1  0
  8  9  1  0
  8 52  1  0
  9 10  1  0
  9 16  2  0
 10 11  3  0
 12 11  1  6
 12 13  1  0
 12 14  1  0
 12 15  1  0
 13 53  1  0
 13 54  1  0
 13 55  1  0
 14 56  1  0
 14 57  1  0
 14 58  1  0
 15 59  1  0
 15 60  1  0
 15 61  1  0
 16 17  1  0
 16 41  1  0
 17 18  2  0
 17 62  1  0
 18 19  1  0
 18 63  1  0
 19 20  2  0
 19 42  1  0
 20 21  1  0
 20 29  1  0
 21 22  2  0
 21 23  1  0
 23 24  2  0
 23 28  1  0
 24 25  1  0
 24 64  1  0
 25 26  2  0
 25 65  1  0
 26 27  1  0
 26 66  1  0
 27 28  2  0
 27 67  1  0
 28 68  1  0
 29 30  2  0
 29 69  1  0
 30 31  1  0
 30 37  1  0
 31 32  3  0
 33 32  1  1
 33 34  1  0
 33 35  1  0
 33 36  1  0
 34 70  1  0
 34 71  1  0
 34 72  1  0
 35 73  1  0
 35 74  1  0
 35 75  1  0
 36 76  1  0
 36 77  1  0
 36 78  1  0
 37 38  2  0
 37 42  1  0
 38 39  1  0
 38 79  1  0
 39 40  2  0
 39 80  1  0
 40 41  1  0
 41 42  2  0
M  END

