
     RDKit          3D

 24 25  0  0  0  0  0  0  0  0999 V2000
    1.1976    0.4878    0.6198 C   0  0  0  0  0  0  0  0  0  0  0  0
    2.1604    0.2567   -0.4509 N   0  0  0  0  0  0  0  0  0  0  0  0
    3.5050    0.8215   -0.2513 C   0  0  0  0  0  0  0  0  0  0  0  0
    4.1034    1.4027   -1.4119 N   0  0  0  0  0  0  0  0  0  0  0  0
    4.1610    2.8477   -1.5348 C   0  0  0  0  0  0  0  0  0  0  0  0
    4.3771    0.5685   -2.4711 C   0  0  0  0  0  0  0  0  0  0  0  0
    5.1508    1.0644   -3.4481 N   0  0  0  0  0  0  0  0  0  0  0  0
    5.5513    0.2850   -4.4451 C   0  0  0  0  0  0  0  0  0  0  0  0
    5.2310   -1.0733   -4.5330 C   0  0  0  0  0  0  0  0  0  0  0  0
    4.3869   -1.5882   -3.5566 C   0  0  0  0  0  0  0  0  0  0  0  0
    3.8858   -0.7846   -2.5140 C   0  0  0  0  0  0  0  0  0  0  0  0
    2.8998   -1.4718   -1.7583 N   0  0  0  0  0  0  0  0  0  0  0  0
    2.0989   -1.0351   -0.9021 N   0  0  0  0  0  0  0  0  0  0  0  0
    0.9945    1.5657    0.7083 H   0  0  0  0  0  0  0  0  0  0  0  0
    1.5423    0.1066    1.6009 H   0  0  0  0  0  0  0  0  0  0  0  0
    0.2650   -0.0281    0.3607 H   0  0  0  0  0  0  0  0  0  0  0  0
    4.1562    0.0089    0.1242 H   0  0  0  0  0  0  0  0  0  0  0  0
    3.4352    1.5876    0.5308 H   0  0  0  0  0  0  0  0  0  0  0  0
    4.6820    3.2927   -0.6711 H   0  0  0  0  0  0  0  0  0  0  0  0
    3.1467    3.2867   -1.5978 H   0  0  0  0  0  0  0  0  0  0  0  0
    4.7167    3.0967   -2.4456 H   0  0  0  0  0  0  0  0  0  0  0  0
    6.1680    0.7629   -5.2162 H   0  0  0  0  0  0  0  0  0  0  0  0
    5.6021   -1.6891   -5.3541 H   0  0  0  0  0  0  0  0  0  0  0  0
    4.0386   -2.6229   -3.5800 H   0  0  0  0  0  0  0  0  0  0  0  0
  1  2  1  0
  1 14  1  0
  1 15  1  0
  1 16  1  0
  2  3  1  0
  2 13  1  0
  3  4  1  0
  3 17  1  0
  3 18  1  0
  4  5  1  0
  4  6  1  0
  5 19  1  0
  5 20  1  0
  5 21  1  0
  6  7  2  0
  6 11  1  0
  7  8  1  0
  8  9  2  0
  8 22  1  0
  9 10  1  0
  9 23  1  0
 10 11  2  0
 10 24  1  0
 11 12  1  0
 12 13  2  0
M  END

