
     RDKit          3D

 32 34  0  0  0  0  0  0  0  0999 V2000
    0.8747    0.5731    0.1689 O   0  0  0  0  0  0  0  0  0  0  0  0
    2.0859    0.4452    0.0478 C   0  0  0  0  0  0  0  0  0  0  0  0
    2.6828   -0.8517   -0.2829 C   0  0  0  0  0  0  0  0  0  0  0  0
    4.0292   -1.0381   -0.4206 C   0  0  0  0  0  0  0  0  0  0  0  0
    4.7131   -2.1886   -0.7130 N   0  0  0  0  0  0  0  0  0  0  0  0
    4.2719   -3.4249   -1.1492 C   0  0  0  0  0  0  0  0  0  0  0  0
    3.0377   -3.5888   -1.8197 C   0  0  0  0  0  0  0  0  0  0  0  0
    2.6085   -4.8322   -2.2695 C   0  0  0  0  0  0  0  0  0  0  0  0
    3.3872   -5.9791   -2.0691 C   0  0  0  0  0  0  0  0  0  0  0  0
    4.6113   -5.8530   -1.4266 C   0  0  0  0  0  0  0  0  0  0  0  0
    5.0579   -4.6032   -0.9790 C   0  0  0  0  0  0  0  0  0  0  0  0
    6.3750   -4.5849   -0.3298 N   0  0  0  0  0  0  0  0  0  0  0  0
    6.9400   -3.5018   -0.1835 O   0  0  0  0  0  0  0  0  0  0  0  0
    6.8541   -5.6477    0.0240 O   0  0  0  0  0  0  0  0  0  0  0  0
    4.9840    0.1163   -0.1836 C   0  0  0  0  0  0  0  0  0  0  0  0
    6.1849   -0.0787   -0.2525 O   0  0  0  0  0  0  0  0  0  0  0  0
    4.4032    1.4453    0.1291 C   0  0  0  0  0  0  0  0  0  0  0  0
    5.2580    2.5405    0.3218 C   0  0  0  0  0  0  0  0  0  0  0  0
    4.7243    3.7959    0.6134 C   0  0  0  0  0  0  0  0  0  0  0  0
    3.3367    3.9619    0.7169 C   0  0  0  0  0  0  0  0  0  0  0  0
    2.4818    2.8736    0.5297 C   0  0  0  0  0  0  0  0  0  0  0  0
    3.0087    1.6122    0.2346 C   0  0  0  0  0  0  0  0  0  0  0  0
    1.9625   -1.6613   -0.3840 H   0  0  0  0  0  0  0  0  0  0  0  0
    5.7233   -2.1263   -0.5424 H   0  0  0  0  0  0  0  0  0  0  0  0
    2.4275   -2.7123   -2.0243 H   0  0  0  0  0  0  0  0  0  0  0  0
    1.6531   -4.9029   -2.7951 H   0  0  0  0  0  0  0  0  0  0  0  0
    3.0474   -6.9553   -2.4196 H   0  0  0  0  0  0  0  0  0  0  0  0
    5.2574   -6.7125   -1.2517 H   0  0  0  0  0  0  0  0  0  0  0  0
    6.3352    2.3844    0.2376 H   0  0  0  0  0  0  0  0  0  0  0  0
    5.3897    4.6499    0.7615 H   0  0  0  0  0  0  0  0  0  0  0  0
    2.9218    4.9466    0.9468 H   0  0  0  0  0  0  0  0  0  0  0  0
    1.3976    2.9733    0.6095 H   0  0  0  0  0  0  0  0  0  0  0  0
  1  2  2  0
  2  3  1  0
  2 22  1  0
  3  4  2  0
  3 23  1  0
  4  5  1  0
  4 15  1  0
  5  6  1  0
  5 24  1  0
  6  7  2  0
  6 11  1  0
  7  8  1  0
  7 25  1  0
  8  9  2  0
  8 26  1  0
  9 10  1  0
  9 27  1  0
 10 11  2  0
 10 28  1  0
 11 12  1  0
 12 13  2  0
 12 14  1  0
 15 16  2  0
 15 17  1  0
 17 18  1  0
 17 22  2  0
 18 19  2  0
 18 29  1  0
 19 20  1  0
 19 30  1  0
 20 21  2  0
 20 31  1  0
 21 22  1  0
 21 32  1  0
M  CHG  2  12   1  14  -1
M  END

