
     RDKit          3D

 46 49  0  0  0  0  0  0  0  0999 V2000
    1.6381   -0.4641    0.1703 C   0  0  0  0  0  0  0  0  0  0  0  0
    2.9224    0.1496   -0.0996 N   0  0  0  0  0  0  0  0  0  0  0  0
    3.2421    1.4906   -0.2546 C   0  0  0  0  0  0  0  0  0  0  0  0
    2.2112    2.5952   -0.1342 C   0  0  1  0  0  0  0  0  0  0  0  0
    2.0759    3.1058    1.3198 C   0  0  0  0  0  0  0  0  0  0  0  0
    1.5098    4.5169    1.1346 C   0  0  0  0  0  0  0  0  0  0  0  0
    2.2145    5.0129   -0.1380 C   0  0  0  0  0  0  0  0  0  0  0  0
    2.5611    3.7958   -0.8705 N   0  0  0  0  0  0  0  0  0  0  0  0
    2.5059    3.8254   -2.3145 C   0  0  0  0  0  0  0  0  0  0  0  0
    3.7138    4.5124   -2.9385 C   0  0  0  0  0  0  0  0  0  0  0  0
    3.6184    5.4299   -3.9894 C   0  0  0  0  0  0  0  0  0  0  0  0
    4.7764    5.9973   -4.5430 C   0  0  0  0  0  0  0  0  0  0  0  0
    6.0352    5.6534   -4.0533 C   0  0  0  0  0  0  0  0  0  0  0  0
    6.1426    4.7387   -2.9912 C   0  0  0  0  0  0  0  0  0  0  0  0
    7.5119    4.3674   -2.4912 C   0  0  0  0  0  0  0  0  0  0  0  0
    8.5295    4.7425   -3.0154 O   0  0  0  0  0  0  0  0  0  0  0  0
    7.5646    3.5723   -1.3972 O   0  0  0  0  0  0  0  0  0  0  0  0
    4.9828    4.1812   -2.4483 C   0  0  0  0  0  0  0  0  0  0  0  0
    4.5289    1.6804   -0.4436 N   0  0  0  0  0  0  0  0  0  0  0  0
    5.1088    0.4260   -0.4251 C   0  0  0  0  0  0  0  0  0  0  0  0
    6.4482    0.0438   -0.5983 C   0  0  0  0  0  0  0  0  0  0  0  0
    6.7513   -1.3145   -0.5250 C   0  0  0  0  0  0  0  0  0  0  0  0
    5.7500   -2.2806   -0.2877 C   0  0  0  0  0  0  0  0  0  0  0  0
    4.4119   -1.9199   -0.1216 C   0  0  0  0  0  0  0  0  0  0  0  0
    4.1136   -0.5545   -0.1990 C   0  0  0  0  0  0  0  0  0  0  0  0
    0.8307    0.2650    0.0352 H   0  0  0  0  0  0  0  0  0  0  0  0
    1.5902   -0.8524    1.2015 H   0  0  0  0  0  0  0  0  0  0  0  0
    1.4653   -1.3014   -0.5242 H   0  0  0  0  0  0  0  0  0  0  0  0
    1.2284    2.1843   -0.4600 H   0  0  0  0  0  0  0  0  0  0  0  0
    3.0779    3.1446    1.7753 H   0  0  0  0  0  0  0  0  0  0  0  0
    1.4444    2.4514    1.9397 H   0  0  0  0  0  0  0  0  0  0  0  0
    1.6815    5.1674    2.0052 H   0  0  0  0  0  0  0  0  0  0  0  0
    0.4208    4.4649    0.9693 H   0  0  0  0  0  0  0  0  0  0  0  0
    3.1140    5.6119    0.1012 H   0  0  0  0  0  0  0  0  0  0  0  0
    1.5537    5.6650   -0.7408 H   0  0  0  0  0  0  0  0  0  0  0  0
    1.5749    4.3090   -2.6847 H   0  0  0  0  0  0  0  0  0  0  0  0
    2.4764    2.7831   -2.6768 H   0  0  0  0  0  0  0  0  0  0  0  0
    2.6356    5.7093   -4.3818 H   0  0  0  0  0  0  0  0  0  0  0  0
    4.6889    6.7153   -5.3625 H   0  0  0  0  0  0  0  0  0  0  0  0
    6.9487    6.0792   -4.4725 H   0  0  0  0  0  0  0  0  0  0  0  0
    6.6783    3.3821   -1.0508 H   0  0  0  0  0  0  0  0  0  0  0  0
    5.0061    3.4507   -1.6350 H   0  0  0  0  0  0  0  0  0  0  0  0
    7.2177    0.7946   -0.7915 H   0  0  0  0  0  0  0  0  0  0  0  0
    7.7857   -1.6419   -0.6546 H   0  0  0  0  0  0  0  0  0  0  0  0
    6.0286   -3.3360   -0.2345 H   0  0  0  0  0  0  0  0  0  0  0  0
    3.6432   -2.6741    0.0604 H   0  0  0  0  0  0  0  0  0  0  0  0
  1  2  1  0
  1 26  1  0
  1 27  1  0
  1 28  1  0
  2  3  1  0
  2 25  1  0
  3  4  1  0
  3 19  2  0
  4  5  1  0
  4  8  1  0
  4 29  1  6
  5  6  1  0
  5 30  1  0
  5 31  1  0
  6  7  1  0
  6 32  1  0
  6 33  1  0
  7  8  1  0
  7 34  1  0
  7 35  1  0
  8  9  1  0
  9 10  1  0
  9 36  1  0
  9 37  1  0
 10 11  2  0
 10 18  1  0
 11 12  1  0
 11 38  1  0
 12 13  2  0
 12 39  1  0
 13 14  1  0
 13 40  1  0
 14 15  1  0
 14 18  2  0
 15 16  2  0
 15 17  1  0
 17 41  1  0
 18 42  1  0
 19 20  1  0
 20 21  1  0
 20 25  2  0
 21 22  2  0
 21 43  1  0
 22 23  1  0
 22 44  1  0
 23 24  2  0
 23 45  1  0
 24 25  1  0
 24 46  1  0
M  END

