
     RDKit          3D

 37 39  0  0  0  0  0  0  0  0999 V2000
    1.8112   -0.4412    1.2362 C   0  0  0  0  0  0  0  0  0  0  0  0
    2.7330    0.0028    0.1120 C   0  0  0  0  0  0  0  0  0  0  0  0
    3.0911    1.1620    0.0301 O   0  0  0  0  0  0  0  0  0  0  0  0
    3.1928   -1.0160   -0.8943 C   0  0  0  0  0  0  0  0  0  0  0  0
    4.0552   -0.5666   -1.9345 C   0  0  0  0  0  0  0  0  0  0  0  0
    4.5288   -1.4318   -2.9066 C   0  0  0  0  0  0  0  0  0  0  0  0
    4.1369   -2.7818   -2.8465 C   0  0  0  0  0  0  0  0  0  0  0  0
    4.3808   -3.9677   -3.6154 C   0  0  0  0  0  0  0  0  0  0  0  0
    5.1527   -4.0119   -4.7083 O   0  0  0  0  0  0  0  0  0  0  0  0
    5.2914   -5.2765   -5.3608 C   0  0  0  0  0  0  0  0  0  0  0  0
    6.1725   -5.0891   -6.5749 C   0  0  1  0  0  0  0  0  0  0  0  0
    6.3692   -6.3051   -7.5207 C   0  0  0  0  0  0  0  0  0  0  0  0
    6.2658   -5.3376   -8.7289 C   0  0  0  0  0  0  0  0  0  0  0  0
    5.6340   -4.2807   -7.7862 C   0  0  0  0  0  0  0  0  0  0  0  0
    3.7527   -5.0110   -3.1135 N   0  0  0  0  0  0  0  0  0  0  0  0
    3.0809   -4.5697   -2.0107 N   0  0  0  0  0  0  0  0  0  0  0  0
    2.2713   -5.4779   -1.2360 C   0  0  0  0  0  0  0  0  0  0  0  0
    3.2784   -3.2317   -1.8090 C   0  0  0  0  0  0  0  0  0  0  0  0
    2.7961   -2.3546   -0.8227 C   0  0  0  0  0  0  0  0  0  0  0  0
    1.5838    0.4283    1.8656 H   0  0  0  0  0  0  0  0  0  0  0  0
    2.2841   -1.2230    1.8521 H   0  0  0  0  0  0  0  0  0  0  0  0
    0.8722   -0.8585    0.8385 H   0  0  0  0  0  0  0  0  0  0  0  0
    4.3281    0.4895   -1.9350 H   0  0  0  0  0  0  0  0  0  0  0  0
    5.1895   -1.0812   -3.7023 H   0  0  0  0  0  0  0  0  0  0  0  0
    4.2921   -5.6535   -5.6446 H   0  0  0  0  0  0  0  0  0  0  0  0
    5.7239   -6.0095   -4.6558 H   0  0  0  0  0  0  0  0  0  0  0  0
    7.1474   -4.6889   -6.2495 H   0  0  0  0  0  0  0  0  0  0  0  0
    5.5112   -6.9965   -7.4753 H   0  0  0  0  0  0  0  0  0  0  0  0
    7.2928   -6.8936   -7.4079 H   0  0  0  0  0  0  0  0  0  0  0  0
    5.6716   -5.6691   -9.5942 H   0  0  0  0  0  0  0  0  0  0  0  0
    7.2583   -5.0264   -9.0909 H   0  0  0  0  0  0  0  0  0  0  0  0
    4.5323   -4.2997   -7.8235 H   0  0  0  0  0  0  0  0  0  0  0  0
    5.9647   -3.2361   -7.8867 H   0  0  0  0  0  0  0  0  0  0  0  0
    2.3906   -6.4783   -1.6690 H   0  0  0  0  0  0  0  0  0  0  0  0
    1.2037   -5.1997   -1.2692 H   0  0  0  0  0  0  0  0  0  0  0  0
    2.5964   -5.5043   -0.1822 H   0  0  0  0  0  0  0  0  0  0  0  0
    2.1357   -2.7136   -0.0327 H   0  0  0  0  0  0  0  0  0  0  0  0
  1  2  1  0
  1 20  1  0
  1 21  1  0
  1 22  1  0
  2  3  2  0
  2  4  1  0
  4  5  2  0
  4 19  1  0
  5  6  1  0
  5 23  1  0
  6  7  2  0
  6 24  1  0
  7  8  1  0
  7 18  1  0
  8  9  1  0
  8 15  2  0
  9 10  1  0
 10 11  1  0
 10 25  1  0
 10 26  1  0
 11 12  1  0
 11 14  1  0
 11 27  1  1
 12 13  1  0
 12 28  1  0
 12 29  1  0
 13 14  1  0
 13 30  1  0
 13 31  1  0
 14 32  1  0
 14 33  1  0
 15 16  1  0
 16 17  1  0
 16 18  1  0
 17 34  1  0
 17 35  1  0
 17 36  1  0
 18 19  2  0
 19 37  1  0
M  END

