
     RDKit          3D

 35 36  0  0  0  0  0  0  0  0999 V2000
    3.0980    0.6032   -0.7697 C   0  0  0  0  0  0  0  0  0  0  0  0
    2.6959   -0.4074    0.3183 C   0  0  1  0  0  0  0  0  0  0  0  0
    2.9823   -1.7960   -0.0407 N   0  0  0  0  0  0  0  0  0  0  0  0
    3.2987   -0.0960    1.6917 C   0  0  0  0  0  0  0  0  0  0  0  0
    3.5822    1.2163    2.1111 C   0  0  0  0  0  0  0  0  0  0  0  0
    4.1102    1.4774    3.3784 C   0  0  0  0  0  0  0  0  0  0  0  0
    4.3860    0.4309    4.2614 C   0  0  0  0  0  0  0  0  0  0  0  0
    4.1043   -0.8702    3.8427 C   0  0  0  0  0  0  0  0  0  0  0  0
    4.4595   -2.2474    4.9405 S   0  0  1  0  0  0  0  0  0  0  0  0
    4.9776   -1.6999    6.1935 O   0  0  0  0  0  0  0  0  0  0  0  0
    3.3463   -3.1902    4.9006 O   0  0  0  0  0  0  0  0  0  0  0  0
    5.7263   -3.1052    4.1867 N   0  0  0  0  0  0  0  0  0  0  0  0
    6.9686   -2.5469    3.8476 C   0  0  0  0  0  0  0  0  0  0  0  0
    7.7300   -1.8198    4.7805 C   0  0  0  0  0  0  0  0  0  0  0  0
    8.9714   -1.2873    4.4398 C   0  0  0  0  0  0  0  0  0  0  0  0
    9.4896   -1.4964    3.1584 C   0  0  0  0  0  0  0  0  0  0  0  0
   11.0546   -0.8486    2.7307 Cl  0  0  0  0  0  0  0  0  0  0  0  0
    8.7674   -2.2261    2.2124 C   0  0  0  0  0  0  0  0  0  0  0  0
    7.5138   -2.7300    2.5591 C   0  0  0  0  0  0  0  0  0  0  0  0
    6.6022   -3.6286    1.3561 Cl  0  0  0  0  0  0  0  0  0  0  0  0
    3.5571   -1.1433    2.5868 C   0  0  0  0  0  0  0  0  0  0  0  0
    2.6606    0.3008   -1.7344 H   0  0  0  0  0  0  0  0  0  0  0  0
    4.1939    0.6421   -0.8882 H   0  0  0  0  0  0  0  0  0  0  0  0
    2.7416    1.6236   -0.5595 H   0  0  0  0  0  0  0  0  0  0  0  0
    1.5969   -0.3443    0.4376 H   0  0  0  0  0  0  0  0  0  0  0  0
    3.9770   -1.9144   -0.2443 H   0  0  0  0  0  0  0  0  0  0  0  0
    2.4726   -2.0587   -0.8832 H   0  0  0  0  0  0  0  0  0  0  0  0
    3.3888    2.0573    1.4432 H   0  0  0  0  0  0  0  0  0  0  0  0
    4.3155    2.5079    3.6782 H   0  0  0  0  0  0  0  0  0  0  0  0
    4.8044    0.6074    5.2530 H   0  0  0  0  0  0  0  0  0  0  0  0
    5.3448   -3.7607    3.5068 H   0  0  0  0  0  0  0  0  0  0  0  0
    7.3261   -1.6836    5.7837 H   0  0  0  0  0  0  0  0  0  0  0  0
    9.5487   -0.7238    5.1742 H   0  0  0  0  0  0  0  0  0  0  0  0
    9.1672   -2.3934    1.2126 H   0  0  0  0  0  0  0  0  0  0  0  0
    3.3277   -2.1634    2.2775 H   0  0  0  0  0  0  0  0  0  0  0  0
  1  2  1  0
  1 22  1  0
  1 23  1  0
  1 24  1  0
  2  3  1  0
  2  4  1  0
  2 25  1  1
  3 26  1  0
  3 27  1  0
  4  5  2  0
  4 21  1  0
  5  6  1  0
  5 28  1  0
  6  7  2  0
  6 29  1  0
  7  8  1  0
  7 30  1  0
  8  9  1  0
  8 21  2  0
  9 10  2  0
  9 11  2  0
  9 12  1  6
 12 13  1  0
 12 31  1  0
 13 14  2  0
 13 19  1  0
 14 15  1  0
 14 32  1  0
 15 16  2  0
 15 33  1  0
 16 17  1  0
 16 18  1  0
 18 19  2  0
 18 34  1  0
 19 20  1  0
 21 35  1  0
M  END

