
     RDKit          3D

 33 34  0  0  0  0  0  0  0  0999 V2000
    2.9369    0.1198    1.2043 C   0  0  0  0  0  0  0  0  0  0  0  0
    2.4035   -0.1038   -0.0785 O   0  0  0  0  0  0  0  0  0  0  0  0
    3.0066   -1.1033   -0.9089 C   0  0  1  0  0  0  0  0  0  0  0  0
    4.4574   -0.6666   -1.1955 C   0  0  0  0  0  0  0  0  0  0  0  0
    5.4672   -1.4666   -0.8505 N   0  0  0  0  0  0  0  0  0  0  0  0
    6.7028   -1.0591   -1.0821 C   0  0  0  0  0  0  0  0  0  0  0  0
    7.9839   -2.1403   -0.6258 Cl  0  0  0  0  0  0  0  0  0  0  0  0
    6.9894    0.1870   -1.6683 C   0  0  0  0  0  0  0  0  0  0  0  0
    8.7447    0.7807   -1.9954 Br  0  0  0  0  0  0  0  0  0  0  0  0
    5.8487    0.9539   -1.9940 C   0  0  0  0  0  0  0  0  0  0  0  0
    6.0234    2.5165   -2.7344 Cl  0  0  0  0  0  0  0  0  0  0  0  0
    4.6242    0.5329   -1.7637 N   0  0  0  0  0  0  0  0  0  0  0  0
    2.9351   -2.4805   -0.2189 C   0  0  0  0  0  0  0  0  0  0  0  0
    3.1550   -3.7482   -1.0612 C   0  0  0  0  0  0  0  0  0  0  0  0
    2.0360   -4.0508   -2.0707 C   0  0  0  0  0  0  0  0  0  0  0  0
    2.1354   -3.3241   -3.4247 C   0  0  0  0  0  0  0  0  0  0  0  0
    2.6740   -1.8831   -3.3797 C   0  0  0  0  0  0  0  0  0  0  0  0
    2.1848   -1.0102   -2.2142 C   0  0  0  0  0  0  0  0  0  0  0  0
    2.4020    0.9864    1.6202 H   0  0  0  0  0  0  0  0  0  0  0  0
    4.0166    0.3648    1.1845 H   0  0  0  0  0  0  0  0  0  0  0  0
    2.7919   -0.7357    1.8892 H   0  0  0  0  0  0  0  0  0  0  0  0
    1.9283   -2.5317    0.2305 H   0  0  0  0  0  0  0  0  0  0  0  0
    3.6564   -2.4923    0.6113 H   0  0  0  0  0  0  0  0  0  0  0  0
    3.2164   -4.5887   -0.3496 H   0  0  0  0  0  0  0  0  0  0  0  0
    4.1384   -3.7149   -1.5587 H   0  0  0  0  0  0  0  0  0  0  0  0
    1.0691   -3.8142   -1.5923 H   0  0  0  0  0  0  0  0  0  0  0  0
    2.0047   -5.1360   -2.2658 H   0  0  0  0  0  0  0  0  0  0  0  0
    1.1353   -3.3254   -3.8923 H   0  0  0  0  0  0  0  0  0  0  0  0
    2.7800   -3.9059   -4.1065 H   0  0  0  0  0  0  0  0  0  0  0  0
    2.4065   -1.3868   -4.3269 H   0  0  0  0  0  0  0  0  0  0  0  0
    3.7774   -1.9059   -3.3773 H   0  0  0  0  0  0  0  0  0  0  0  0
    1.1364   -1.2341   -1.9578 H   0  0  0  0  0  0  0  0  0  0  0  0
    2.2156    0.0509   -2.4995 H   0  0  0  0  0  0  0  0  0  0  0  0
  1  2  1  0
  1 19  1  0
  1 20  1  0
  1 21  1  0
  3  2  1  1
  3  4  1  0
  3 13  1  0
  3 18  1  0
  4  5  2  0
  4 12  1  0
  5  6  1  0
  6  7  1  0
  6  8  2  0
  8  9  1  0
  8 10  1  0
 10 11  1  0
 10 12  2  0
 13 14  1  0
 13 22  1  0
 13 23  1  0
 14 15  1  0
 14 24  1  0
 14 25  1  0
 15 16  1  0
 15 26  1  0
 15 27  1  0
 16 17  1  0
 16 28  1  0
 16 29  1  0
 17 18  1  0
 17 30  1  0
 17 31  1  0
 18 32  1  0
 18 33  1  0
M  END

