
     RDKit          3D

 48 48  0  0  0  0  0  0  0  0999 V2000
    2.4214    3.0627   -0.2696 C   0  0  0  0  0  0  0  0  0  0  0  0
    2.3348    2.3622    1.0939 C   0  0  1  0  0  0  0  0  0  0  0  0
    0.8718    2.1397    1.5041 C   0  0  0  0  0  0  0  0  0  0  0  0
    3.1723    1.0531    1.1807 C   0  0  1  0  0  0  0  0  0  0  0  0
    2.7524   -0.0134    0.1467 C   0  0  0  0  0  0  0  0  0  0  0  0
    3.1295   -1.4513    0.5135 C   0  0  0  0  0  0  0  0  0  0  0  0
    2.7400   -2.3727   -0.5500 N   0  0  0  0  0  0  0  0  0  0  0  0
    4.6960    1.2986    1.0961 C   0  0  0  0  0  0  0  0  0  0  0  0
    5.2975    2.2761    2.1273 C   0  0  0  0  0  0  0  0  0  0  0  0
    4.9469    1.9408    3.5746 C   0  0  0  0  0  0  0  0  0  0  0  0
    4.0270    2.5227    4.1390 O   0  0  0  0  0  0  0  0  0  0  0  0
    5.6452    0.9463    4.2220 N   0  0  0  0  0  0  0  0  0  0  0  0
    6.7898    0.2243    3.6984 C   0  0  0  0  0  0  0  0  0  0  0  0
    5.2314    0.6116    5.5824 C   0  0  0  0  0  0  0  0  0  0  0  0
    5.8438    1.5445    6.6499 C   0  0  0  0  0  0  0  0  0  0  0  0
    5.4631    1.1691    8.0529 C   0  0  0  0  0  0  0  0  0  0  0  0
    4.4592    1.6912    8.8347 C   0  0  0  0  0  0  0  0  0  0  0  0
    4.3394    1.0557   10.1094 C   0  0  0  0  0  0  0  0  0  0  0  0
    5.2528    0.0490   10.2865 C   0  0  0  0  0  0  0  0  0  0  0  0
    6.2712   -0.1299    8.8973 S   0  0  0  0  0  0  0  0  0  0  0  0
    1.8752    4.0198   -0.2486 H   0  0  0  0  0  0  0  0  0  0  0  0
    1.9773    2.4515   -1.0729 H   0  0  0  0  0  0  0  0  0  0  0  0
    3.4601    3.2882   -0.5604 H   0  0  0  0  0  0  0  0  0  0  0  0
    2.7541    3.0410    1.8537 H   0  0  0  0  0  0  0  0  0  0  0  0
    0.3260    1.5005    0.7902 H   0  0  0  0  0  0  0  0  0  0  0  0
    0.3335    3.1001    1.5540 H   0  0  0  0  0  0  0  0  0  0  0  0
    0.8055    1.6715    2.4995 H   0  0  0  0  0  0  0  0  0  0  0  0
    2.9634    0.6364    2.1838 H   0  0  0  0  0  0  0  0  0  0  0  0
    3.1849    0.2123   -0.8428 H   0  0  0  0  0  0  0  0  0  0  0  0
    1.6574    0.0173    0.0114 H   0  0  0  0  0  0  0  0  0  0  0  0
    2.6881   -1.6894    1.5077 H   0  0  0  0  0  0  0  0  0  0  0  0
    4.2228   -1.5343    0.6406 H   0  0  0  0  0  0  0  0  0  0  0  0
    1.7234   -2.3835   -0.6493 H   0  0  0  0  0  0  0  0  0  0  0  0
    3.0086   -3.3278   -0.3130 H   0  0  0  0  0  0  0  0  0  0  0  0
    4.9505    1.6718    0.0891 H   0  0  0  0  0  0  0  0  0  0  0  0
    5.2097    0.3270    1.1841 H   0  0  0  0  0  0  0  0  0  0  0  0
    4.9094    3.2906    1.9664 H   0  0  0  0  0  0  0  0  0  0  0  0
    6.3874    2.3317    1.9774 H   0  0  0  0  0  0  0  0  0  0  0  0
    7.0878    0.6057    2.7164 H   0  0  0  0  0  0  0  0  0  0  0  0
    6.5695   -0.8533    3.5926 H   0  0  0  0  0  0  0  0  0  0  0  0
    7.6598    0.3221    4.3717 H   0  0  0  0  0  0  0  0  0  0  0  0
    5.5196   -0.4326    5.7831 H   0  0  0  0  0  0  0  0  0  0  0  0
    4.1366    0.6807    5.6410 H   0  0  0  0  0  0  0  0  0  0  0  0
    5.4866    2.5657    6.4493 H   0  0  0  0  0  0  0  0  0  0  0  0
    6.9419    1.5551    6.5400 H   0  0  0  0  0  0  0  0  0  0  0  0
    3.8244    2.5145    8.5009 H   0  0  0  0  0  0  0  0  0  0  0  0
    3.6056    1.3396   10.8658 H   0  0  0  0  0  0  0  0  0  0  0  0
    5.3934   -0.5917   11.1560 H   0  0  0  0  0  0  0  0  0  0  0  0
  1  2  1  0
  1 21  1  0
  1 22  1  0
  1 23  1  0
  2  3  1  0
  2  4  1  0
  2 24  1  1
  3 25  1  0
  3 26  1  0
  3 27  1  0
  4  5  1  0
  4  8  1  0
  4 28  1  1
  5  6  1  0
  5 29  1  0
  5 30  1  0
  6  7  1  0
  6 31  1  0
  6 32  1  0
  7 33  1  0
  7 34  1  0
  8  9  1  0
  8 35  1  0
  8 36  1  0
  9 10  1  0
  9 37  1  0
  9 38  1  0
 10 11  2  0
 10 12  1  0
 12 13  1  0
 12 14  1  0
 13 39  1  0
 13 40  1  0
 13 41  1  0
 14 15  1  0
 14 42  1  0
 14 43  1  0
 15 16  1  0
 15 44  1  0
 15 45  1  0
 16 17  2  0
 16 20  1  0
 17 18  1  0
 17 46  1  0
 18 19  2  0
 18 47  1  0
 19 20  1  0
 19 48  1  0
M  END

