
     RDKit          3D

 50 52  0  0  0  0  0  0  0  0999 V2000
    2.5359   -2.4215   -0.0954 O   0  0  0  0  0  0  0  0  0  0  0  0
    2.1317   -1.3378    0.2914 C   0  0  0  0  0  0  0  0  0  0  0  0
    0.6486   -0.9361    0.1604 C   0  0  0  0  0  0  0  0  0  0  0  0
   -0.0523   -0.8041    1.4288 N   0  0  0  0  0  0  0  0  0  0  0  0
    0.0320    0.3224    2.1920 C   0  0  0  0  0  0  0  0  0  0  0  0
    0.7570    1.2660    1.8746 O   0  0  0  0  0  0  0  0  0  0  0  0
   -0.7979    0.3539    3.4299 C   0  0  0  0  0  0  0  0  0  0  0  0
   -1.8369   -0.5588    3.8192 C   0  0  0  0  0  0  0  0  0  0  0  0
   -2.4039   -0.2309    5.0220 C   0  0  0  0  0  0  0  0  0  0  0  0
   -1.6857    1.1947    5.6953 S   0  0  0  0  0  0  0  0  0  0  0  0
   -0.6189    1.3570    4.3592 C   0  0  0  0  0  0  0  0  0  0  0  0
    2.9140   -0.3766    0.8592 N   0  0  0  0  0  0  0  0  0  0  0  0
    4.3254   -0.5554    1.1049 C   0  0  1  0  0  0  0  0  0  0  0  0
    5.2267    0.5611    0.5519 C   0  0  0  0  0  0  0  0  0  0  0  0
    6.5345    0.3659    1.3194 C   0  0  0  0  0  0  0  0  0  0  0  0
    6.0993   -0.1700    2.6186 N   0  0  0  0  0  0  0  0  0  0  0  0
    6.9935   -0.2241    3.6558 C   0  0  0  0  0  0  0  0  0  0  0  0
    8.1530    0.1374    3.4864 O   0  0  0  0  0  0  0  0  0  0  0  0
    6.4678   -0.7056    5.0125 C   0  0  1  0  0  0  0  0  0  0  0  0
    7.5621   -1.3934    5.8583 C   0  0  0  0  0  0  0  0  0  0  0  0
    8.5797   -0.4253    6.4804 C   0  0  0  0  0  0  0  0  0  0  0  0
    7.8924    0.7126    7.2450 C   0  0  0  0  0  0  0  0  0  0  0  0
    6.8761    1.4434    6.3585 C   0  0  0  0  0  0  0  0  0  0  0  0
    5.8305    0.4711    5.7978 C   0  0  0  0  0  0  0  0  0  0  0  0
    4.7004   -0.5903    2.6034 C   0  0  0  0  0  0  0  0  0  0  0  0
    0.1610   -1.7158   -0.4379 H   0  0  0  0  0  0  0  0  0  0  0  0
    0.5777    0.0256   -0.3718 H   0  0  0  0  0  0  0  0  0  0  0  0
   -0.5238   -1.6195    1.7986 H   0  0  0  0  0  0  0  0  0  0  0  0
   -2.1742   -1.4117    3.2277 H   0  0  0  0  0  0  0  0  0  0  0  0
   -3.2108   -0.7409    5.5462 H   0  0  0  0  0  0  0  0  0  0  0  0
    0.0981    2.1733    4.2916 H   0  0  0  0  0  0  0  0  0  0  0  0
    2.4455    0.4764    1.1754 H   0  0  0  0  0  0  0  0  0  0  0  0
    4.5984   -1.5154    0.6419 H   0  0  0  0  0  0  0  0  0  0  0  0
    4.7826    1.5435    0.7891 H   0  0  0  0  0  0  0  0  0  0  0  0
    5.3515    0.5029   -0.5390 H   0  0  0  0  0  0  0  0  0  0  0  0
    7.1122    1.2902    1.4634 H   0  0  0  0  0  0  0  0  0  0  0  0
    7.2063   -0.3517    0.8146 H   0  0  0  0  0  0  0  0  0  0  0  0
    5.6752   -1.4471    4.8257 H   0  0  0  0  0  0  0  0  0  0  0  0
    8.0836   -2.1482    5.2476 H   0  0  0  0  0  0  0  0  0  0  0  0
    7.0495   -1.9452    6.6678 H   0  0  0  0  0  0  0  0  0  0  0  0
    9.1999   -0.0028    5.6764 H   0  0  0  0  0  0  0  0  0  0  0  0
    9.2513   -0.9847    7.1542 H   0  0  0  0  0  0  0  0  0  0  0  0
    8.6447    1.4226    7.6284 H   0  0  0  0  0  0  0  0  0  0  0  0
    7.3701    0.3048    8.1319 H   0  0  0  0  0  0  0  0  0  0  0  0
    7.4070    1.9368    5.5262 H   0  0  0  0  0  0  0  0  0  0  0  0
    6.3695    2.2411    6.9283 H   0  0  0  0  0  0  0  0  0  0  0  0
    5.1062    1.0077    5.1619 H   0  0  0  0  0  0  0  0  0  0  0  0
    5.2496    0.0447    6.6358 H   0  0  0  0  0  0  0  0  0  0  0  0
    4.0508    0.1046    3.1694 H   0  0  0  0  0  0  0  0  0  0  0  0
    4.5591   -1.5960    3.0285 H   0  0  0  0  0  0  0  0  0  0  0  0
  1  2  2  0
  2  3  1  0
  2 12  1  0
  3  4  1  0
  3 26  1  0
  3 27  1  0
  4  5  1  0
  4 28  1  0
  5  6  2  0
  5  7  1  0
  7  8  1  0
  7 11  2  0
  8  9  2  0
  8 29  1  0
  9 10  1  0
  9 30  1  0
 10 11  1  0
 11 31  1  0
 12 13  1  0
 12 32  1  0
 13 14  1  0
 13 25  1  0
 13 33  1  6
 14 15  1  0
 14 34  1  0
 14 35  1  0
 15 16  1  0
 15 36  1  0
 15 37  1  0
 16 17  1  0
 16 25  1  0
 17 18  2  0
 17 19  1  0
 19 20  1  0
 19 24  1  0
 19 38  1  6
 20 21  1  0
 20 39  1  0
 20 40  1  0
 21 22  1  0
 21 41  1  0
 21 42  1  0
 22 23  1  0
 22 43  1  0
 22 44  1  0
 23 24  1  0
 23 45  1  0
 23 46  1  0
 24 47  1  0
 24 48  1  0
 25 49  1  0
 25 50  1  0
M  END

