
     RDKit          3D

 42 42  0  0  0  0  0  0  0  0999 V2000
    0.7607    0.9918    2.5019 C   0  0  0  0  0  0  0  0  0  0  0  0
    0.9984   -0.1177    1.6687 O   0  0  0  0  0  0  0  0  0  0  0  0
    2.1792   -0.7885    1.7508 C   0  0  0  0  0  0  0  0  0  0  0  0
    3.2343   -0.3694    2.5686 C   0  0  0  0  0  0  0  0  0  0  0  0
    4.4455   -1.0775    2.5870 C   0  0  0  0  0  0  0  0  0  0  0  0
    5.5748   -0.6227    3.4797 C   0  0  0  0  0  0  0  0  0  0  0  0
    4.5730   -2.1995    1.7666 C   0  0  0  0  0  0  0  0  0  0  0  0
    3.5211   -2.6438    0.9461 C   0  0  0  0  0  0  0  0  0  0  0  0
    3.7436   -3.8573    0.0708 C   0  0  0  0  0  0  0  0  0  0  0  0
    2.3006   -1.9435    0.9382 C   0  0  0  0  0  0  0  0  0  0  0  0
    1.1235   -2.4037    0.1013 C   0  0  1  0  0  0  0  0  0  0  0  0
   -0.0156   -2.5255    0.8973 F   0  0  0  0  0  0  0  0  0  0  0  0
    0.7794   -1.5003   -1.0926 C   0  0  0  0  0  0  0  0  0  0  0  0
    1.7724   -1.6570   -2.1451 N   0  0  0  0  0  0  0  0  0  0  0  0
    1.9680   -0.5588   -3.1127 C   0  0  1  0  0  0  0  0  0  0  0  0
    2.6057    0.6452   -2.3976 C   0  0  0  0  0  0  0  0  0  0  0  0
    2.9465   -1.0853   -4.1746 C   0  0  0  0  0  0  0  0  0  0  0  0
    0.6508   -0.1291   -3.7964 C   0  0  0  0  0  0  0  0  0  0  0  0
   -0.2613    1.3309    2.2850 H   0  0  0  0  0  0  0  0  0  0  0  0
    1.4627    1.8217    2.3005 H   0  0  0  0  0  0  0  0  0  0  0  0
    0.8280    0.7234    3.5714 H   0  0  0  0  0  0  0  0  0  0  0  0
    3.1283    0.5168    3.1950 H   0  0  0  0  0  0  0  0  0  0  0  0
    5.8324    0.4338    3.2963 H   0  0  0  0  0  0  0  0  0  0  0  0
    6.4823   -1.2238    3.3218 H   0  0  0  0  0  0  0  0  0  0  0  0
    5.2994   -0.7051    4.5451 H   0  0  0  0  0  0  0  0  0  0  0  0
    5.5159   -2.7531    1.7614 H   0  0  0  0  0  0  0  0  0  0  0  0
    4.7679   -4.2396    0.1876 H   0  0  0  0  0  0  0  0  0  0  0  0
    3.5904   -3.6058   -0.9902 H   0  0  0  0  0  0  0  0  0  0  0  0
    3.0532   -4.6808    0.3198 H   0  0  0  0  0  0  0  0  0  0  0  0
    1.3304   -3.4124   -0.2884 H   0  0  0  0  0  0  0  0  0  0  0  0
    0.7548   -0.4591   -0.7476 H   0  0  0  0  0  0  0  0  0  0  0  0
   -0.2546   -1.7573   -1.4019 H   0  0  0  0  0  0  0  0  0  0  0  0
    1.5952   -2.5200   -2.6574 H   0  0  0  0  0  0  0  0  0  0  0  0
    3.5369    0.3416   -1.8961 H   0  0  0  0  0  0  0  0  0  0  0  0
    1.9355    1.0734   -1.6362 H   0  0  0  0  0  0  0  0  0  0  0  0
    2.8361    1.4451   -3.1191 H   0  0  0  0  0  0  0  0  0  0  0  0
    3.8923   -1.3982   -3.7064 H   0  0  0  0  0  0  0  0  0  0  0  0
    3.1670   -0.3128   -4.9274 H   0  0  0  0  0  0  0  0  0  0  0  0
    2.5231   -1.9554   -4.7056 H   0  0  0  0  0  0  0  0  0  0  0  0
   -0.0739    0.2620   -3.0651 H   0  0  0  0  0  0  0  0  0  0  0  0
    0.1813   -0.9828   -4.3135 H   0  0  0  0  0  0  0  0  0  0  0  0
    0.8270    0.6613   -4.5441 H   0  0  0  0  0  0  0  0  0  0  0  0
  1  2  1  0
  1 19  1  0
  1 20  1  0
  1 21  1  0
  2  3  1  0
  3  4  2  0
  3 10  1  0
  4  5  1  0
  4 22  1  0
  5  6  1  0
  5  7  2  0
  6 23  1  0
  6 24  1  0
  6 25  1  0
  7  8  1  0
  7 26  1  0
  8  9  1  0
  8 10  2  0
  9 27  1  0
  9 28  1  0
  9 29  1  0
 10 11  1  0
 11 12  1  0
 11 13  1  0
 11 30  1  6
 13 14  1  0
 13 31  1  0
 13 32  1  0
 15 14  1  1
 14 33  1  0
 15 16  1  0
 15 17  1  0
 15 18  1  0
 16 34  1  0
 16 35  1  0
 16 36  1  0
 17 37  1  0
 17 38  1  0
 17 39  1  0
 18 40  1  0
 18 41  1  0
 18 42  1  0
M  END

