
     RDKit          3D

 54 56  0  0  0  0  0  0  0  0999 V2000
    1.2326   -0.1646   -2.3049 C   0  0  0  0  0  0  0  0  0  0  0  0
    1.5990   -1.2407   -1.2788 C   0  0  0  0  0  0  0  0  0  0  0  0
    2.7764   -0.9441   -0.4758 N   0  0  0  0  0  0  0  0  0  0  0  0
    4.0855   -0.9314   -0.9245 C   0  0  0  0  0  0  0  0  0  0  0  0
    5.0741   -0.3954   -0.2903 N   0  0  0  0  0  0  0  0  0  0  0  0
    4.8102    0.3249    0.9249 C   0  0  0  0  0  0  0  0  0  0  0  0
    6.0485    0.9792    1.5184 C   0  0  0  0  0  0  0  0  0  0  0  0
    7.2932    0.8584    0.8913 C   0  0  0  0  0  0  0  0  0  0  0  0
    8.4430    1.4409    1.4320 C   0  0  0  0  0  0  0  0  0  0  0  0
    8.3961    2.1664    2.6289 C   0  0  0  0  0  0  0  0  0  0  0  0
    9.6308    2.7931    3.2314 C   0  0  0  0  0  0  0  0  0  0  0  0
    7.1490    2.2899    3.2608 C   0  0  0  0  0  0  0  0  0  0  0  0
    5.9893    1.7211    2.7199 C   0  0  0  0  0  0  0  0  0  0  0  0
    4.4428    1.9173    3.6250 S   0  0  0  0  0  0  0  0  0  0  0  0
    3.8287    3.4904    2.9163 C   0  0  0  0  0  0  0  0  0  0  0  0
    4.2875   -1.5435   -2.1520 N   0  0  0  0  0  0  0  0  0  0  0  0
    5.6376   -1.7759   -2.6251 C   0  0  0  0  0  0  0  0  0  0  0  0
    6.3427   -2.9605   -1.9431 C   0  0  0  0  0  0  0  0  0  0  0  0
    5.6576   -4.2737   -2.1806 C   0  0  0  0  0  0  0  0  0  0  0  0
    4.4273   -4.4343   -2.6147 N   0  0  0  0  0  0  0  0  0  0  0  0
    4.2151   -5.8021   -2.6635 C   0  0  0  0  0  0  0  0  0  0  0  0
    3.0839   -6.5338   -3.0545 C   0  0  0  0  0  0  0  0  0  0  0  0
    3.1510   -7.9253   -3.0036 C   0  0  0  0  0  0  0  0  0  0  0  0
    4.3191   -8.5893   -2.5733 C   0  0  0  0  0  0  0  0  0  0  0  0
    5.4562   -7.8815   -2.1809 C   0  0  0  0  0  0  0  0  0  0  0  0
    5.3816   -6.4863   -2.2333 C   0  0  0  0  0  0  0  0  0  0  0  0
    6.2808   -5.4783   -1.9339 N   0  0  0  0  0  0  0  0  0  0  0  0
    7.2276   -5.5945   -1.5957 H   0  0  0  0  0  0  0  0  0  0  0  0
    0.3241   -0.4492   -2.8606 H   0  0  0  0  0  0  0  0  0  0  0  0
    2.0511   -0.0261   -3.0271 H   0  0  0  0  0  0  0  0  0  0  0  0
    1.0422    0.8019   -1.8104 H   0  0  0  0  0  0  0  0  0  0  0  0
    1.7295   -2.2136   -1.7820 H   0  0  0  0  0  0  0  0  0  0  0  0
    0.7637   -1.3912   -0.5753 H   0  0  0  0  0  0  0  0  0  0  0  0
    2.6134   -0.4129    0.3688 H   0  0  0  0  0  0  0  0  0  0  0  0
    4.3766   -0.3282    1.7134 H   0  0  0  0  0  0  0  0  0  0  0  0
    4.0450    1.1216    0.7820 H   0  0  0  0  0  0  0  0  0  0  0  0
    7.3350    0.2901   -0.0383 H   0  0  0  0  0  0  0  0  0  0  0  0
    9.3988    1.3240    0.9118 H   0  0  0  0  0  0  0  0  0  0  0  0
   10.5221    2.6000    2.6159 H   0  0  0  0  0  0  0  0  0  0  0  0
    9.8297    2.3999    4.2427 H   0  0  0  0  0  0  0  0  0  0  0  0
    9.5217    3.8865    3.3293 H   0  0  0  0  0  0  0  0  0  0  0  0
    7.0671    2.8402    4.2025 H   0  0  0  0  0  0  0  0  0  0  0  0
    2.8742    3.7081    3.4184 H   0  0  0  0  0  0  0  0  0  0  0  0
    3.6537    3.4048    1.8337 H   0  0  0  0  0  0  0  0  0  0  0  0
    4.5331    4.3118    3.1122 H   0  0  0  0  0  0  0  0  0  0  0  0
    3.6805   -2.3349   -2.3574 H   0  0  0  0  0  0  0  0  0  0  0  0
    6.2246   -0.8658   -2.4480 H   0  0  0  0  0  0  0  0  0  0  0  0
    5.5904   -1.9520   -3.7115 H   0  0  0  0  0  0  0  0  0  0  0  0
    6.3943   -2.7537   -0.8594 H   0  0  0  0  0  0  0  0  0  0  0  0
    7.3864   -3.0270   -2.2993 H   0  0  0  0  0  0  0  0  0  0  0  0
    2.1822   -6.0160   -3.3883 H   0  0  0  0  0  0  0  0  0  0  0  0
    2.2829   -8.5180   -3.3026 H   0  0  0  0  0  0  0  0  0  0  0  0
    4.3342   -9.6817   -2.5465 H   0  0  0  0  0  0  0  0  0  0  0  0
    6.3589   -8.3997   -1.8487 H   0  0  0  0  0  0  0  0  0  0  0  0
  1  2  1  0
  1 29  1  0
  1 30  1  0
  1 31  1  0
  2  3  1  0
  2 32  1  0
  2 33  1  0
  3  4  1  0
  3 34  1  0
  4  5  2  0
  4 16  1  0
  5  6  1  0
  6  7  1  0
  6 35  1  0
  6 36  1  0
  7  8  2  0
  7 13  1  0
  8  9  1  0
  8 37  1  0
  9 10  2  0
  9 38  1  0
 10 11  1  0
 10 12  1  0
 11 39  1  0
 11 40  1  0
 11 41  1  0
 12 13  2  0
 12 42  1  0
 13 14  1  0
 14 15  1  0
 15 43  1  0
 15 44  1  0
 15 45  1  0
 16 17  1  0
 16 46  1  0
 17 18  1  0
 17 47  1  0
 17 48  1  0
 18 19  1  0
 18 49  1  0
 18 50  1  0
 19 20  2  0
 19 27  1  0
 20 21  1  0
 21 22  2  0
 21 26  1  0
 22 23  1  0
 22 51  1  0
 23 24  2  0
 23 52  1  0
 24 25  1  0
 24 53  1  0
 25 26  2  0
 25 54  1  0
 26 27  1  0
 27 28  1  0
M  END

