
     RDKit          3D

 30 34  0  0  0  0  0  0  0  0999 V2000
   -0.6773   -0.3367    0.4127 C   0  0  0  0  0  0  0  0  0  0  0  0
    0.6565   -0.0772    0.2618 C   0  0  0  0  0  0  0  0  0  0  0  0
    0.9332    1.3289    0.1479 C   0  0  0  0  0  0  0  0  0  0  0  0
    2.2870    1.8344   -0.0205 C   0  0  0  0  0  0  0  0  0  0  0  0
    3.3853    1.0987   -0.0924 N   0  0  0  0  0  0  0  0  0  0  0  0
    4.4849    1.9076   -0.2529 N   0  0  0  0  0  0  0  0  0  0  0  0
    4.0283    3.1292   -0.2752 C   0  0  0  0  0  0  0  0  0  0  0  0
    4.6102    4.7697   -0.4281 S   0  0  0  0  0  0  0  0  0  0  0  0
    2.9033    5.3102   -0.2845 C   0  0  0  0  0  0  0  0  0  0  0  0
    2.5532    6.7342   -0.3266 C   0  0  0  0  0  0  0  0  0  0  0  0
    1.2122    7.1205   -0.1488 C   0  0  0  0  0  0  0  0  0  0  0  0
    0.8227    8.4679   -0.1812 C   0  0  0  0  0  0  0  0  0  0  0  0
    1.8175    9.4082   -0.3963 C   0  0  0  0  0  0  0  0  0  0  0  0
    3.1542    9.0346   -0.5736 C   0  0  0  0  0  0  0  0  0  0  0  0
    3.5552    7.7153   -0.5453 C   0  0  0  0  0  0  0  0  0  0  0  0
    3.9142   10.1510   -0.7626 O   0  0  0  0  0  0  0  0  0  0  0  0
    3.0250   11.2648   -0.7215 C   0  0  0  0  0  0  0  0  0  0  0  0
    1.7116   10.7610   -0.4697 O   0  0  0  0  0  0  0  0  0  0  0  0
    2.0310    4.3564   -0.1393 N   0  0  0  0  0  0  0  0  0  0  0  0
    2.6589    3.1588   -0.1343 N   0  0  0  0  0  0  0  0  0  0  0  0
   -0.2130    2.0958    0.2168 C   0  0  0  0  0  0  0  0  0  0  0  0
   -1.6199    1.1187    0.4187 S   0  0  0  0  0  0  0  0  0  0  0  0
   -1.1648   -1.3045    0.5213 H   0  0  0  0  0  0  0  0  0  0  0  0
    1.4392   -0.8346    0.2290 H   0  0  0  0  0  0  0  0  0  0  0  0
    0.4632    6.3464    0.0193 H   0  0  0  0  0  0  0  0  0  0  0  0
   -0.2171    8.7665   -0.0423 H   0  0  0  0  0  0  0  0  0  0  0  0
    4.6051    7.4564   -0.6906 H   0  0  0  0  0  0  0  0  0  0  0  0
    3.0395   11.7918   -1.6924 H   0  0  0  0  0  0  0  0  0  0  0  0
    3.3208   11.9502    0.0921 H   0  0  0  0  0  0  0  0  0  0  0  0
   -0.2870    3.1793    0.1570 H   0  0  0  0  0  0  0  0  0  0  0  0
  1  2  2  0
  1 22  1  0
  1 23  1  0
  2  3  1  0
  2 24  1  0
  3  4  1  0
  3 21  2  0
  4  5  2  0
  4 20  1  0
  5  6  1  0
  6  7  2  0
  7  8  1  0
  7 20  1  0
  8  9  1  0
  9 10  1  0
  9 19  2  0
 10 11  2  0
 10 15  1  0
 11 12  1  0
 11 25  1  0
 12 13  2  0
 12 26  1  0
 13 14  1  0
 13 18  1  0
 14 15  2  0
 14 16  1  0
 15 27  1  0
 16 17  1  0
 17 18  1  0
 17 28  1  0
 17 29  1  0
 19 20  1  0
 21 22  1  0
 21 30  1  0
M  END

