
     RDKit          3D

 39 43  0  0  0  0  0  0  0  0999 V2000
    0.9981    1.0032   -0.4767 F   0  0  0  0  0  0  0  0  0  0  0  0
    2.3532    0.7995   -0.3606 B   0  0  1  0  0  0  0  0  0  0  0  0
    2.7671    0.9663    0.9772 F   0  0  0  0  0  0  0  0  0  0  0  0
    2.7462   -0.6448   -0.8106 N   0  0  0  0  0  0  0  0  0  0  0  0
    3.6438   -0.9537   -1.8268 C   0  0  0  0  0  0  0  0  0  0  0  0
    3.8184   -2.3556   -1.8690 C   0  0  0  0  0  0  0  0  0  0  0  0
    3.0042   -2.8912   -0.8724 C   0  0  0  0  0  0  0  0  0  0  0  0
    2.7975   -4.7071   -0.4459 Br  0  0  0  0  0  0  0  0  0  0  0  0
    2.3583   -1.8067   -0.2383 C   0  0  0  0  0  0  0  0  0  0  0  0
    1.1460   -1.9155    1.1737 Br  0  0  0  0  0  0  0  0  0  0  0  0
    4.2374    0.0664   -2.6088 C   0  0  0  0  0  0  0  0  0  0  0  0
    5.1504   -0.2959   -3.7237 C   0  0  0  0  0  0  0  0  0  0  0  0
    6.4640    0.2086   -3.7690 C   0  0  0  0  0  0  0  0  0  0  0  0
    7.3223   -0.1373   -4.8147 C   0  0  0  0  0  0  0  0  0  0  0  0
    6.8824   -0.9859   -5.8350 C   0  0  0  0  0  0  0  0  0  0  0  0
    5.5792   -1.4916   -5.8015 C   0  0  0  0  0  0  0  0  0  0  0  0
    4.7207   -1.1552   -4.7530 C   0  0  0  0  0  0  0  0  0  0  0  0
    3.9546    1.4089   -2.3334 C   0  0  0  0  0  0  0  0  0  0  0  0
    4.3523    2.5677   -3.0555 C   0  0  0  0  0  0  0  0  0  0  0  0
    3.7753    3.6489   -2.4292 C   0  0  0  0  0  0  0  0  0  0  0  0
    4.0594    5.4319   -2.9681 Br  0  0  0  0  0  0  0  0  0  0  0  0
    3.0116    3.1708   -1.3027 C   0  0  0  0  0  0  0  0  0  0  0  0
    2.2679    3.9647   -0.3619 C   0  0  0  0  0  0  0  0  0  0  0  0
    1.7524    5.2697   -0.4933 C   0  0  0  0  0  0  0  0  0  0  0  0
    1.0871    5.5896    0.7039 C   0  0  0  0  0  0  0  0  0  0  0  0
    1.2157    4.4876    1.5481 C   0  0  0  0  0  0  0  0  0  0  0  0
    1.9155    3.5271    0.9013 N   0  0  0  0  0  0  0  0  0  0  0  0
    2.1729    2.6122    1.2733 H   0  0  0  0  0  0  0  0  0  0  0  0
    3.1334    1.8090   -1.2778 N   0  0  0  0  0  0  0  0  0  0  0  0
    4.4706   -2.9037   -2.5428 H   0  0  0  0  0  0  0  0  0  0  0  0
    6.8177    0.8575   -2.9649 H   0  0  0  0  0  0  0  0  0  0  0  0
    8.3424    0.2545   -4.8286 H   0  0  0  0  0  0  0  0  0  0  0  0
    7.5541   -1.2536   -6.6542 H   0  0  0  0  0  0  0  0  0  0  0  0
    5.2256   -2.1498   -6.5991 H   0  0  0  0  0  0  0  0  0  0  0  0
    3.6993   -1.5411   -4.7393 H   0  0  0  0  0  0  0  0  0  0  0  0
    4.9893    2.5868   -3.9348 H   0  0  0  0  0  0  0  0  0  0  0  0
    1.8316    5.8940   -1.3770 H   0  0  0  0  0  0  0  0  0  0  0  0
    0.5662    6.5163    0.9346 H   0  0  0  0  0  0  0  0  0  0  0  0
    0.8600    4.3328    2.5648 H   0  0  0  0  0  0  0  0  0  0  0  0
  2  1  1  1
  2  3  1  0
  2  4  1  0
  2 29  1  0
  4  5  1  0
  4  9  1  0
  5  6  2  0
  5 11  1  0
  6  7  1  0
  6 30  1  0
  7  8  1  0
  7  9  2  0
  9 10  1  0
 11 12  1  0
 11 18  2  0
 12 13  2  0
 12 17  1  0
 13 14  1  0
 13 31  1  0
 14 15  2  0
 14 32  1  0
 15 16  1  0
 15 33  1  0
 16 17  2  0
 16 34  1  0
 17 35  1  0
 18 19  1  0
 18 29  1  0
 19 20  2  0
 19 36  1  0
 20 21  1  0
 20 22  1  0
 22 23  1  0
 22 29  2  0
 23 24  2  0
 23 27  1  0
 24 25  1  0
 24 37  1  0
 25 26  2  0
 25 38  1  0
 26 27  1  0
 26 39  1  0
 27 28  1  0
M  CHG  2   2  -1  29   1
M  END

