
     RDKit          3D

 81 86  0  0  0  0  0  0  0  0999 V2000
    6.7255    7.7469    0.9805 N   0  0  0  0  0  0  0  0  0  0  0  0
    6.9140    6.6102    0.8354 C   0  0  0  0  0  0  0  0  0  0  0  0
    7.1471    5.2042    0.6555 C   0  0  0  0  0  0  0  0  0  0  0  0
    8.4617    4.7067    0.5645 C   0  0  0  0  0  0  0  0  0  0  0  0
    8.6814    3.3426    0.3921 C   0  0  0  0  0  0  0  0  0  0  0  0
    7.6062    2.4439    0.3059 C   0  0  0  0  0  0  0  0  0  0  0  0
    7.8502    0.9635    0.0586 C   0  0  0  0  0  0  0  0  0  0  0  0
    9.0473    0.4600    0.7108 N   0  0  0  0  0  0  0  0  0  0  0  0
    8.9493    0.3178    2.1648 C   0  0  0  0  0  0  0  0  0  0  0  0
    8.1990   -0.9525    2.6041 C   0  0  0  0  0  0  0  0  0  0  0  0
    8.8017   -2.2109    1.9710 C   0  0  2  0  0  0  0  0  0  0  0  0
   10.0888   -2.3951    2.5794 O   0  0  0  0  0  0  0  0  0  0  0  0
   10.6996   -3.6043    2.5949 C   0  0  0  0  0  0  0  0  0  0  0  0
   11.9759   -3.6147    3.2331 C   0  0  0  0  0  0  0  0  0  0  0  0
   12.6972   -4.7784    3.3322 C   0  0  0  0  0  0  0  0  0  0  0  0
   12.1964   -6.0042    2.8033 C   0  0  0  0  0  0  0  0  0  0  0  0
   12.9209   -7.2197    2.8916 C   0  0  0  0  0  0  0  0  0  0  0  0
   12.4164   -8.4030    2.3694 C   0  0  0  0  0  0  0  0  0  0  0  0
   13.1417   -9.7148    2.4424 C   0  0  0  0  0  0  0  0  0  0  0  0
   12.6363  -10.7201    1.9755 O   0  0  0  0  0  0  0  0  0  0  0  0
   14.5056   -9.7623    3.1282 C   0  0  0  0  0  0  0  0  0  0  0  0
   15.1839  -11.1421    3.0793 C   0  0  1  0  0  0  0  0  0  0  0  0
   15.7433  -11.4859    1.6794 C   0  0  0  0  0  0  0  0  0  0  0  0
   17.0406  -10.7224    1.3594 C   0  0  0  0  0  0  0  0  0  0  0  0
   18.0830  -10.8740    2.3773 N   0  0  0  0  0  0  0  0  0  0  0  0
   18.8336  -12.1199    2.3073 C   0  0  0  0  0  0  0  0  0  0  0  0
   19.7705  -12.1927    1.1117 C   0  0  0  0  0  0  0  0  0  0  0  0
   20.5044  -11.0661    0.7076 C   0  0  0  0  0  0  0  0  0  0  0  0
   21.4046  -11.1460   -0.3570 C   0  0  0  0  0  0  0  0  0  0  0  0
   21.5870  -12.3552   -1.0375 C   0  0  0  0  0  0  0  0  0  0  0  0
   20.8582  -13.4815   -0.6469 C   0  0  0  0  0  0  0  0  0  0  0  0
   19.9547  -13.3968    0.4178 C   0  0  0  0  0  0  0  0  0  0  0  0
   17.5862  -10.5114    3.7012 C   0  0  0  0  0  0  0  0  0  0  0  0
   16.3159  -11.2733    4.1211 C   0  0  0  0  0  0  0  0  0  0  0  0
   11.1411   -8.3844    1.7329 C   0  0  0  0  0  0  0  0  0  0  0  0
   10.4164   -7.2205    1.6313 C   0  0  0  0  0  0  0  0  0  0  0  0
   10.9149   -5.9942    2.1606 C   0  0  0  0  0  0  0  0  0  0  0  0
   10.1837   -4.7783    2.0663 C   0  0  0  0  0  0  0  0  0  0  0  0
    8.9356   -2.0395    0.4491 C   0  0  0  0  0  0  0  0  0  0  0  0
    9.6537   -0.7216    0.1035 C   0  0  0  0  0  0  0  0  0  0  0  0
    6.3003    2.9466    0.4048 C   0  0  0  0  0  0  0  0  0  0  0  0
    6.0642    4.3101    0.5742 C   0  0  0  0  0  0  0  0  0  0  0  0
    9.3042    5.3982    0.6299 H   0  0  0  0  0  0  0  0  0  0  0  0
    9.6976    2.9479    0.3314 H   0  0  0  0  0  0  0  0  0  0  0  0
    7.9826    0.8212   -1.0291 H   0  0  0  0  0  0  0  0  0  0  0  0
    6.9211    0.4094    0.3177 H   0  0  0  0  0  0  0  0  0  0  0  0
    8.4656    1.2135    2.5839 H   0  0  0  0  0  0  0  0  0  0  0  0
    9.9718    0.2852    2.5766 H   0  0  0  0  0  0  0  0  0  0  0  0
    7.1381   -0.8945    2.3076 H   0  0  0  0  0  0  0  0  0  0  0  0
    8.2205   -1.0503    3.7012 H   0  0  0  0  0  0  0  0  0  0  0  0
    8.1674   -3.0816    2.2101 H   0  0  0  0  0  0  0  0  0  0  0  0
   12.3503   -2.6727    3.6385 H   0  0  0  0  0  0  0  0  0  0  0  0
   13.6733   -4.7741    3.8250 H   0  0  0  0  0  0  0  0  0  0  0  0
   13.8937   -7.1968    3.3872 H   0  0  0  0  0  0  0  0  0  0  0  0
   14.3484   -9.4563    4.1790 H   0  0  0  0  0  0  0  0  0  0  0  0
   15.1436   -8.9744    2.6941 H   0  0  0  0  0  0  0  0  0  0  0  0
   14.3999  -11.8782    3.3166 H   0  0  0  0  0  0  0  0  0  0  0  0
   14.9840  -11.2902    0.9064 H   0  0  0  0  0  0  0  0  0  0  0  0
   15.9413  -12.5711    1.6398 H   0  0  0  0  0  0  0  0  0  0  0  0
   16.8251   -9.6428    1.2547 H   0  0  0  0  0  0  0  0  0  0  0  0
   17.4447  -11.0452    0.3875 H   0  0  0  0  0  0  0  0  0  0  0  0
   18.1979  -13.0323    2.3093 H   0  0  0  0  0  0  0  0  0  0  0  0
   19.4425  -12.1832    3.2272 H   0  0  0  0  0  0  0  0  0  0  0  0
   20.3467  -10.1233    1.2366 H   0  0  0  0  0  0  0  0  0  0  0  0
   21.9684  -10.2590   -0.6593 H   0  0  0  0  0  0  0  0  0  0  0  0
   22.2907  -12.4170   -1.8718 H   0  0  0  0  0  0  0  0  0  0  0  0
   20.9870  -14.4292   -1.1766 H   0  0  0  0  0  0  0  0  0  0  0  0
   19.3818  -14.2811    0.7138 H   0  0  0  0  0  0  0  0  0  0  0  0
   17.3797   -9.4246    3.7000 H   0  0  0  0  0  0  0  0  0  0  0  0
   18.3900  -10.6703    4.4387 H   0  0  0  0  0  0  0  0  0  0  0  0
   15.9764  -10.9206    5.1110 H   0  0  0  0  0  0  0  0  0  0  0  0
   16.5625  -12.3427    4.2431 H   0  0  0  0  0  0  0  0  0  0  0  0
   10.7628   -9.3258    1.3306 H   0  0  0  0  0  0  0  0  0  0  0  0
    9.4397   -7.2233    1.1394 H   0  0  0  0  0  0  0  0  0  0  0  0
    9.2150   -4.7998    1.5670 H   0  0  0  0  0  0  0  0  0  0  0  0
    7.9228   -2.0515    0.0099 H   0  0  0  0  0  0  0  0  0  0  0  0
    9.4790   -2.8928    0.0126 H   0  0  0  0  0  0  0  0  0  0  0  0
    9.6955   -0.5845   -0.9887 H   0  0  0  0  0  0  0  0  0  0  0  0
   10.6973   -0.7873    0.4560 H   0  0  0  0  0  0  0  0  0  0  0  0
    5.4513    2.2591    0.3499 H   0  0  0  0  0  0  0  0  0  0  0  0
    5.0434    4.6896    0.6509 H   0  0  0  0  0  0  0  0  0  0  0  0
  1  2  3  0
  2  3  1  0
  3  4  2  0
  3 42  1  0
  4  5  1  0
  4 43  1  0
  5  6  2  0
  5 44  1  0
  6  7  1  0
  6 41  1  0
  7  8  1  0
  7 45  1  0
  7 46  1  0
  8  9  1  0
  8 40  1  0
  9 10  1  0
  9 47  1  0
  9 48  1  0
 10 11  1  0
 10 49  1  0
 10 50  1  0
 11 12  1  0
 11 39  1  0
 11 51  1  6
 12 13  1  0
 13 14  2  0
 13 38  1  0
 14 15  1  0
 14 52  1  0
 15 16  2  0
 15 53  1  0
 16 17  1  0
 16 37  1  0
 17 18  2  0
 17 54  1  0
 18 19  1  0
 18 35  1  0
 19 20  2  0
 19 21  1  0
 21 22  1  0
 21 55  1  0
 21 56  1  0
 22 23  1  0
 22 34  1  0
 22 57  1  1
 23 24  1  0
 23 58  1  0
 23 59  1  0
 24 25  1  0
 24 60  1  0
 24 61  1  0
 25 26  1  0
 25 33  1  0
 26 27  1  0
 26 62  1  0
 26 63  1  0
 27 28  2  0
 27 32  1  0
 28 29  1  0
 28 64  1  0
 29 30  2  0
 29 65  1  0
 30 31  1  0
 30 66  1  0
 31 32  2  0
 31 67  1  0
 32 68  1  0
 33 34  1  0
 33 69  1  0
 33 70  1  0
 34 71  1  0
 34 72  1  0
 35 36  2  0
 35 73  1  0
 36 37  1  0
 36 74  1  0
 37 38  2  0
 38 75  1  0
 39 40  1  0
 39 76  1  0
 39 77  1  0
 40 78  1  0
 40 79  1  0
 41 42  2  0
 41 80  1  0
 42 81  1  0
M  END

