
     RDKit          3D

 46 48  0  0  0  0  0  0  0  0999 V2000
    1.4801    0.3607    1.5456 C   0  0  0  0  0  0  0  0  0  0  0  0
    2.8457    0.2317    0.9152 C   0  0  0  0  0  0  0  0  0  0  0  0
    3.2038    0.9740   -0.2176 C   0  0  0  0  0  0  0  0  0  0  0  0
    4.4644    0.8297   -0.8063 C   0  0  0  0  0  0  0  0  0  0  0  0
    5.4110   -0.0592   -0.2839 C   0  0  0  0  0  0  0  0  0  0  0  0
    6.8107   -0.1357   -0.8726 C   0  0  1  0  0  0  0  0  0  0  0  0
    7.8198    0.6404   -0.1336 N   0  0  0  0  0  0  0  0  0  0  0  0
    7.2819   -1.5956   -1.0938 C   0  0  0  0  0  0  0  0  0  0  0  0
    6.5046   -2.4775   -1.4257 O   0  0  0  0  0  0  0  0  0  0  0  0
    8.6177   -1.7745   -0.9429 N   0  0  0  0  0  0  0  0  0  0  0  0
    9.2826   -3.0497   -1.2283 C   0  0  2  0  0  0  0  0  0  0  0  0
    9.1929   -4.0181   -0.0361 C   0  0  0  0  0  0  0  0  0  0  0  0
   10.1646   -3.6128    1.0715 C   0  0  0  0  0  0  0  0  0  0  0  0
   11.6074   -3.6957    0.5665 C   0  0  0  0  0  0  0  0  0  0  0  0
   11.8101   -3.0500   -0.7933 C   0  0  0  0  0  0  0  0  0  0  0  0
   13.1115   -2.7507   -1.2208 C   0  0  0  0  0  0  0  0  0  0  0  0
   13.3726   -2.1931   -2.4835 C   0  0  0  0  0  0  0  0  0  0  0  0
   14.6722   -1.9514   -2.9069 N   0  0  0  0  0  0  0  0  0  0  0  0
   12.2752   -1.9321   -3.3312 C   0  0  0  0  0  0  0  0  0  0  0  0
   10.9841   -2.2242   -2.9089 C   0  0  0  0  0  0  0  0  0  0  0  0
   10.7210   -2.7856   -1.6477 C   0  0  0  0  0  0  0  0  0  0  0  0
    5.0529   -0.8069    0.8503 C   0  0  0  0  0  0  0  0  0  0  0  0
    3.7975   -0.6618    1.4376 C   0  0  0  0  0  0  0  0  0  0  0  0
    0.9219    1.2138    1.1322 H   0  0  0  0  0  0  0  0  0  0  0  0
    1.5506    0.4978    2.6371 H   0  0  0  0  0  0  0  0  0  0  0  0
    0.8750   -0.5465    1.3748 H   0  0  0  0  0  0  0  0  0  0  0  0
    2.4847    1.6747   -0.6520 H   0  0  0  0  0  0  0  0  0  0  0  0
    4.7117    1.4198   -1.6945 H   0  0  0  0  0  0  0  0  0  0  0  0
    6.7692    0.2890   -1.8908 H   0  0  0  0  0  0  0  0  0  0  0  0
    7.7171    0.4681    0.8685 H   0  0  0  0  0  0  0  0  0  0  0  0
    7.6551    1.6387   -0.2603 H   0  0  0  0  0  0  0  0  0  0  0  0
    9.1545   -0.9475   -0.6922 H   0  0  0  0  0  0  0  0  0  0  0  0
    8.7267   -3.4957   -2.0691 H   0  0  0  0  0  0  0  0  0  0  0  0
    9.4373   -5.0359   -0.3896 H   0  0  0  0  0  0  0  0  0  0  0  0
    8.1513   -4.0469    0.3171 H   0  0  0  0  0  0  0  0  0  0  0  0
   10.0384   -4.2522    1.9604 H   0  0  0  0  0  0  0  0  0  0  0  0
    9.9362   -2.5808    1.3933 H   0  0  0  0  0  0  0  0  0  0  0  0
   11.8979   -4.7608    0.4879 H   0  0  0  0  0  0  0  0  0  0  0  0
   12.3053   -3.2508    1.2956 H   0  0  0  0  0  0  0  0  0  0  0  0
   13.9511   -2.9625   -0.5503 H   0  0  0  0  0  0  0  0  0  0  0  0
   15.3763   -1.8672   -2.1832 H   0  0  0  0  0  0  0  0  0  0  0  0
   14.7865   -1.2758   -3.6533 H   0  0  0  0  0  0  0  0  0  0  0  0
   12.4460   -1.5048   -4.3235 H   0  0  0  0  0  0  0  0  0  0  0  0
   10.1448   -2.0115   -3.5779 H   0  0  0  0  0  0  0  0  0  0  0  0
    5.7590   -1.5280    1.2713 H   0  0  0  0  0  0  0  0  0  0  0  0
    3.5442   -1.2625    2.3166 H   0  0  0  0  0  0  0  0  0  0  0  0
  1  2  1  0
  1 24  1  0
  1 25  1  0
  1 26  1  0
  2  3  2  0
  2 23  1  0
  3  4  1  0
  3 27  1  0
  4  5  2  0
  4 28  1  0
  5  6  1  0
  5 22  1  0
  6  7  1  0
  6  8  1  0
  6 29  1  6
  7 30  1  0
  7 31  1  0
  8  9  2  0
  8 10  1  0
 10 11  1  0
 10 32  1  0
 11 12  1  0
 11 21  1  0
 11 33  1  6
 12 13  1  0
 12 34  1  0
 12 35  1  0
 13 14  1  0
 13 36  1  0
 13 37  1  0
 14 15  1  0
 14 38  1  0
 14 39  1  0
 15 16  2  0
 15 21  1  0
 16 17  1  0
 16 40  1  0
 17 18  1  0
 17 19  2  0
 18 41  1  0
 18 42  1  0
 19 20  1  0
 19 43  1  0
 20 21  2  0
 20 44  1  0
 22 23  2  0
 22 45  1  0
 23 46  1  0
M  END

