
     RDKit          3D

 43 46  0  0  0  0  0  0  0  0999 V2000
    0.9887    0.4273    0.4276 C   0  0  0  0  0  0  0  0  0  0  0  0
    2.1767    0.2844    0.2280 C   0  0  0  0  0  0  0  0  0  0  0  0
    3.6235    0.1687   -0.0149 C   0  0  2  0  0  0  0  0  0  0  0  0
    3.9284    0.0078   -1.5098 C   0  0  0  0  0  0  0  0  0  0  0  0
    3.4295   -1.3607   -2.0022 C   0  0  0  0  0  0  0  0  0  0  0  0
    3.9583   -2.5493   -1.1715 C   0  0  2  0  0  0  0  0  0  0  0  0
    5.0568   -2.5894   -1.3056 H   0  0  0  0  0  0  0  0  0  0  0  0
    3.3735   -3.9230   -1.6293 C   0  0  1  0  0  0  0  0  0  0  0  0
    2.3007   -3.8894   -1.3598 H   0  0  0  0  0  0  0  0  0  0  0  0
    3.4558   -4.2568   -3.1300 C   0  0  0  0  0  0  0  0  0  0  0  0
    4.8335   -4.7682   -3.5565 C   0  0  0  0  0  0  0  0  0  0  0  0
    5.2826   -5.9548   -2.7127 C   0  0  0  0  0  0  0  0  0  0  0  0
    6.0067   -6.8288   -3.1529 O   0  0  0  0  0  0  0  0  0  0  0  0
    4.8408   -5.9430   -1.3017 C   0  0  0  0  0  0  0  0  0  0  0  0
    4.0065   -5.0130   -0.7864 C   0  0  0  0  0  0  0  0  0  0  0  0
    3.7388   -4.8890    0.6871 C   0  0  0  0  0  0  0  0  0  0  0  0
    4.2580   -3.5239    1.1813 C   0  0  0  0  0  0  0  0  0  0  0  0
    3.6977   -2.3575    0.3541 C   0  0  1  0  0  0  0  0  0  0  0  0
    2.6013   -2.3341    0.5026 H   0  0  0  0  0  0  0  0  0  0  0  0
    4.2563   -1.0005    0.7874 C   0  0  2  0  0  0  0  0  0  0  0  0
    5.3307   -0.9904    0.5150 H   0  0  0  0  0  0  0  0  0  0  0  0
    4.1667   -0.5290    2.2511 C   0  0  0  0  0  0  0  0  0  0  0  0
    4.5224    0.9719    2.1623 C   0  0  0  0  0  0  0  0  0  0  0  0
    4.2687    1.3846    0.7051 C   0  0  0  0  0  0  0  0  0  0  0  0
    4.5590    2.4319    0.1927 O   0  0  0  0  0  0  0  0  0  0  0  0
   -0.0640    0.5542    0.5975 H   0  0  0  0  0  0  0  0  0  0  0  0
    5.0196    0.0907   -1.6489 H   0  0  0  0  0  0  0  0  0  0  0  0
    3.4704    0.8240   -2.0885 H   0  0  0  0  0  0  0  0  0  0  0  0
    3.7231   -1.4814   -3.0560 H   0  0  0  0  0  0  0  0  0  0  0  0
    2.3253   -1.3711   -1.9833 H   0  0  0  0  0  0  0  0  0  0  0  0
    2.7141   -5.0476   -3.3357 H   0  0  0  0  0  0  0  0  0  0  0  0
    3.1531   -3.3956   -3.7432 H   0  0  0  0  0  0  0  0  0  0  0  0
    5.5998   -3.9792   -3.4371 H   0  0  0  0  0  0  0  0  0  0  0  0
    4.8575   -5.0703   -4.6141 H   0  0  0  0  0  0  0  0  0  0  0  0
    5.2799   -6.7198   -0.6676 H   0  0  0  0  0  0  0  0  0  0  0  0
    4.2117   -5.7107    1.2462 H   0  0  0  0  0  0  0  0  0  0  0  0
    2.6503   -4.9452    0.8719 H   0  0  0  0  0  0  0  0  0  0  0  0
    5.3613   -3.5188    1.1219 H   0  0  0  0  0  0  0  0  0  0  0  0
    3.9970   -3.3933    2.2442 H   0  0  0  0  0  0  0  0  0  0  0  0
    4.8469   -1.0806    2.9163 H   0  0  0  0  0  0  0  0  0  0  0  0
    3.1426   -0.6674    2.6327 H   0  0  0  0  0  0  0  0  0  0  0  0
    5.5847    1.1699    2.3821 H   0  0  0  0  0  0  0  0  0  0  0  0
    3.9391    1.6164    2.8382 H   0  0  0  0  0  0  0  0  0  0  0  0
  1  2  3  0
  1 26  1  0
  3  2  1  6
  3  4  1  0
  3 20  1  0
  3 24  1  0
  4  5  1  0
  4 27  1  0
  4 28  1  0
  5  6  1  0
  5 29  1  0
  5 30  1  0
  6  7  1  1
  6  8  1  0
  6 18  1  0
  8  9  1  1
  8 10  1  0
  8 15  1  0
 10 11  1  0
 10 31  1  0
 10 32  1  0
 11 12  1  0
 11 33  1  0
 11 34  1  0
 12 13  2  0
 12 14  1  0
 14 15  2  0
 14 35  1  0
 15 16  1  0
 16 17  1  0
 16 36  1  0
 16 37  1  0
 17 18  1  0
 17 38  1  0
 17 39  1  0
 18 19  1  6
 18 20  1  0
 20 21  1  6
 20 22  1  0
 22 23  1  0
 22 40  1  0
 22 41  1  0
 23 24  1  0
 23 42  1  0
 23 43  1  0
 24 25  2  0
M  END

