
     RDKit          3D

 20 20  0  0  0  0  0  0  0  0999 V2000
    3.7371   -1.3222   -1.3366 C   0  0  0  0  0  0  0  0  0  0  0  0
    4.5017   -0.5124   -0.9591 N   0  0  0  0  0  0  0  0  0  0  0  0
    5.4219    0.4673   -0.5120 C   0  0  0  0  0  0  0  0  0  0  0  0
    6.0915    0.2082    0.8547 C   0  0  0  0  0  0  0  0  0  0  0  0
    6.8872    1.0296    1.2641 O   0  0  0  0  0  0  0  0  0  0  0  0
    5.7176   -0.9422    1.4855 N   0  0  0  0  0  0  0  0  0  0  0  0
    6.1571   -1.4329    2.7256 C   0  0  0  0  0  0  0  0  0  0  0  0
    7.0972   -0.7679    3.5332 C   0  0  0  0  0  0  0  0  0  0  0  0
    7.4959   -1.3038    4.7571 C   0  0  0  0  0  0  0  0  0  0  0  0
    6.9616   -2.5166    5.1974 C   0  0  0  0  0  0  0  0  0  0  0  0
    7.4587   -3.1898    6.7296 Cl  0  0  0  0  0  0  0  0  0  0  0  0
    6.0265   -3.2008    4.4179 C   0  0  0  0  0  0  0  0  0  0  0  0
    5.6337   -2.6579    3.1961 C   0  0  0  0  0  0  0  0  0  0  0  0
    4.4589   -3.5286    2.2274 Cl  0  0  0  0  0  0  0  0  0  0  0  0
    4.9196    1.4451   -0.4377 H   0  0  0  0  0  0  0  0  0  0  0  0
    6.2350    0.5786   -1.2470 H   0  0  0  0  0  0  0  0  0  0  0  0
    5.0368   -1.5309    1.0112 H   0  0  0  0  0  0  0  0  0  0  0  0
    7.5086    0.1760    3.1825 H   0  0  0  0  0  0  0  0  0  0  0  0
    8.2262   -0.7763    5.3723 H   0  0  0  0  0  0  0  0  0  0  0  0
    5.6048   -4.1477    4.7539 H   0  0  0  0  0  0  0  0  0  0  0  0
  1  2  3  0
  2  3  1  0
  3  4  1  0
  3 15  1  0
  3 16  1  0
  4  5  1  0
  4  6  2  0
  6  7  1  0
  6 17  1  0
  7  8  2  0
  7 13  1  0
  8  9  1  0
  8 18  1  0
  9 10  2  0
  9 19  1  0
 10 11  1  0
 10 12  1  0
 12 13  2  0
 12 20  1  0
 13 14  1  0
M  CHG  4   1  -1   2   1   5  -1   6   1
M  END

