
     RDKit          3D

 40 41  0  0  0  0  0  0  0  0999 V2000
    0.9168   -1.5099    2.7993 N   0  0  0  0  0  0  0  0  0  0  0  0
    2.3654   -1.4358    2.6463 C   0  0  0  0  0  0  0  0  0  0  0  0
    2.7252   -0.9166    1.2502 C   0  0  0  0  0  0  0  0  0  0  0  0
    4.1654   -0.8008    1.0520 N   0  0  0  0  0  0  0  0  0  0  0  0
    4.8459   -2.0206    0.6353 C   0  0  0  0  0  0  0  0  0  0  0  0
    4.7663   -2.2764   -0.8802 C   0  0  0  0  0  0  0  0  0  0  0  0
    5.2477   -1.1012   -1.6163 N   0  0  0  0  0  0  0  0  0  0  0  0
    6.2523   -1.2687   -2.5103 C   0  0  0  0  0  0  0  0  0  0  0  0
    6.7645   -2.3653   -2.7420 O   0  0  0  0  0  0  0  0  0  0  0  0
    6.8129   -0.0447   -3.3043 C   0  0  0  0  0  0  0  0  0  0  0  0
    6.4592    1.1168   -3.1733 O   0  0  0  0  0  0  0  0  0  0  0  0
    7.7675   -0.4915   -4.1645 N   0  0  0  0  0  0  0  0  0  0  0  0
    8.5521    0.2263   -5.0771 C   0  0  0  0  0  0  0  0  0  0  0  0
    8.4564    1.6193   -5.2504 C   0  0  0  0  0  0  0  0  0  0  0  0
    9.2800    2.2487   -6.1854 C   0  0  0  0  0  0  0  0  0  0  0  0
   10.1993    1.5318   -6.9559 C   0  0  0  0  0  0  0  0  0  0  0  0
   10.2816    0.1491   -6.7714 C   0  0  0  0  0  0  0  0  0  0  0  0
   11.5245   -0.8667   -7.8048 Br  0  0  0  0  0  0  0  0  0  0  0  0
    9.4740   -0.5091   -5.8469 C   0  0  0  0  0  0  0  0  0  0  0  0
    4.5480    0.1373   -1.2472 C   0  0  0  0  0  0  0  0  0  0  0  0
    4.6322    0.3391    0.2759 C   0  0  0  0  0  0  0  0  0  0  0  0
    0.6674   -1.7140    3.7663 H   0  0  0  0  0  0  0  0  0  0  0  0
    0.5359   -2.2761    2.2421 H   0  0  0  0  0  0  0  0  0  0  0  0
    2.8963   -2.3960    2.8287 H   0  0  0  0  0  0  0  0  0  0  0  0
    2.7661   -0.7231    3.3856 H   0  0  0  0  0  0  0  0  0  0  0  0
    2.2632    0.0762    1.1369 H   0  0  0  0  0  0  0  0  0  0  0  0
    2.2321   -1.5634    0.4896 H   0  0  0  0  0  0  0  0  0  0  0  0
    4.4267   -2.8841    1.1743 H   0  0  0  0  0  0  0  0  0  0  0  0
    5.9111   -1.9516    0.9217 H   0  0  0  0  0  0  0  0  0  0  0  0
    3.7206   -2.4715   -1.1812 H   0  0  0  0  0  0  0  0  0  0  0  0
    5.3738   -3.1400   -1.1750 H   0  0  0  0  0  0  0  0  0  0  0  0
    7.9044   -1.5014   -4.0892 H   0  0  0  0  0  0  0  0  0  0  0  0
    7.7440    2.1848   -4.6547 H   0  0  0  0  0  0  0  0  0  0  0  0
    9.2030    3.3311   -6.3172 H   0  0  0  0  0  0  0  0  0  0  0  0
   10.8383    2.0332   -7.6837 H   0  0  0  0  0  0  0  0  0  0  0  0
    9.5549   -1.5904   -5.7194 H   0  0  0  0  0  0  0  0  0  0  0  0
    3.4901    0.0370   -1.5546 H   0  0  0  0  0  0  0  0  0  0  0  0
    4.9857    0.9817   -1.7846 H   0  0  0  0  0  0  0  0  0  0  0  0
    4.0596    1.2359    0.5586 H   0  0  0  0  0  0  0  0  0  0  0  0
    5.6894    0.5335    0.5357 H   0  0  0  0  0  0  0  0  0  0  0  0
  1  2  1  0
  1 22  1  0
  1 23  1  0
  2  3  1  0
  2 24  1  0
  2 25  1  0
  3  4  1  0
  3 26  1  0
  3 27  1  0
  4  5  1  0
  4 21  1  0
  5  6  1  0
  5 28  1  0
  5 29  1  0
  6  7  1  0
  6 30  1  0
  6 31  1  0
  7  8  1  0
  7 20  1  0
  8  9  2  0
  8 10  1  0
 10 11  2  0
 10 12  1  0
 12 13  1  0
 12 32  1  0
 13 14  2  0
 13 19  1  0
 14 15  1  0
 14 33  1  0
 15 16  2  0
 15 34  1  0
 16 17  1  0
 16 35  1  0
 17 18  1  0
 17 19  2  0
 19 36  1  0
 20 21  1  0
 20 37  1  0
 20 38  1  0
 21 39  1  0
 21 40  1  0
M  END

