
     RDKit          3D

 44 47  0  0  0  0  0  0  0  0999 V2000
    5.4115   -4.6884   -1.8280 O   0  0  0  0  0  0  0  0  0  0  0  0
    6.2010   -4.9649   -2.7250 C   0  0  0  0  0  0  0  0  0  0  0  0
    7.2197   -4.1278   -3.1315 N   0  0  0  0  0  0  0  0  0  0  0  0
    7.2666   -2.7454   -2.6849 C   0  0  0  0  0  0  0  0  0  0  0  0
    6.7767   -1.7308   -3.7369 C   0  0  2  0  0  0  0  0  0  0  0  0
    6.8289   -0.7275   -3.2830 H   0  0  0  0  0  0  0  0  0  0  0  0
    5.3552   -2.0411   -4.2691 C   0  0  0  0  0  0  0  0  0  0  0  0
    5.6091   -2.7915   -5.6023 C   0  0  0  0  0  0  0  0  0  0  0  0
    7.0285   -2.8619   -5.7716 O   0  0  0  0  0  0  0  0  0  0  0  0
    7.5935   -1.7862   -5.0384 C   0  0  0  0  0  0  0  0  0  0  0  0
    6.1389   -6.1706   -3.3924 N   0  0  0  0  0  0  0  0  0  0  0  0
    7.0393   -6.6417   -4.4452 C   0  0  0  0  0  0  0  0  0  0  0  0
    6.3949   -7.9573   -4.9110 C   0  0  0  0  0  0  0  0  0  0  0  0
    5.6110   -8.4325   -3.6795 C   0  0  0  0  0  0  0  0  0  0  0  0
    5.0786   -7.1127   -3.0725 C   0  0  2  0  0  0  0  0  0  0  0  0
    4.9501   -7.1818   -1.9821 H   0  0  0  0  0  0  0  0  0  0  0  0
    3.7457   -6.7004   -3.6726 C   0  0  0  0  0  0  0  0  0  0  0  0
    3.5976   -6.0614   -4.7856 N   0  0  0  0  0  0  0  0  0  0  0  0
    2.2626   -5.8918   -5.1079 C   0  0  0  0  0  0  0  0  0  0  0  0
    1.7726   -5.2381   -6.2515 C   0  0  0  0  0  0  0  0  0  0  0  0
    0.3971   -5.1476   -6.4430 C   0  0  0  0  0  0  0  0  0  0  0  0
   -0.5008   -5.6996   -5.5092 C   0  0  0  0  0  0  0  0  0  0  0  0
   -0.0378   -6.3532   -4.3679 C   0  0  0  0  0  0  0  0  0  0  0  0
    1.3459   -6.4465   -4.1758 C   0  0  0  0  0  0  0  0  0  0  0  0
    2.2401   -7.1823   -2.8655 S   0  0  0  0  0  0  0  0  0  0  0  0
    7.6207   -4.3023   -4.0468 H   0  0  0  0  0  0  0  0  0  0  0  0
    8.3005   -2.4888   -2.3902 H   0  0  0  0  0  0  0  0  0  0  0  0
    6.6406   -2.6843   -1.7838 H   0  0  0  0  0  0  0  0  0  0  0  0
    4.7979   -1.1089   -4.4466 H   0  0  0  0  0  0  0  0  0  0  0  0
    4.7764   -2.6431   -3.5544 H   0  0  0  0  0  0  0  0  0  0  0  0
    5.1600   -2.2509   -6.4572 H   0  0  0  0  0  0  0  0  0  0  0  0
    5.2147   -3.8191   -5.5994 H   0  0  0  0  0  0  0  0  0  0  0  0
    7.5054   -0.8326   -5.6001 H   0  0  0  0  0  0  0  0  0  0  0  0
    8.6661   -1.9929   -4.8907 H   0  0  0  0  0  0  0  0  0  0  0  0
    8.0581   -6.8033   -4.0439 H   0  0  0  0  0  0  0  0  0  0  0  0
    7.1163   -5.9162   -5.2734 H   0  0  0  0  0  0  0  0  0  0  0  0
    7.1381   -8.6896   -5.2595 H   0  0  0  0  0  0  0  0  0  0  0  0
    5.7006   -7.7538   -5.7398 H   0  0  0  0  0  0  0  0  0  0  0  0
    6.2835   -8.9113   -2.9490 H   0  0  0  0  0  0  0  0  0  0  0  0
    4.8073   -9.1443   -3.9164 H   0  0  0  0  0  0  0  0  0  0  0  0
    2.4787   -4.8158   -6.9693 H   0  0  0  0  0  0  0  0  0  0  0  0
    0.0065   -4.6418   -7.3294 H   0  0  0  0  0  0  0  0  0  0  0  0
   -1.5770   -5.6153   -5.6795 H   0  0  0  0  0  0  0  0  0  0  0  0
   -0.7374   -6.7791   -3.6455 H   0  0  0  0  0  0  0  0  0  0  0  0
  1  2  2  0
  2  3  1  0
  2 11  1  0
  3  4  1  0
  3 26  1  0
  4  5  1  0
  4 27  1  0
  4 28  1  0
  5  6  1  1
  5  7  1  0
  5 10  1  0
  7  8  1  0
  7 29  1  0
  7 30  1  0
  8  9  1  0
  8 31  1  0
  8 32  1  0
  9 10  1  0
 10 33  1  0
 10 34  1  0
 11 12  1  0
 11 15  1  0
 12 13  1  0
 12 35  1  0
 12 36  1  0
 13 14  1  0
 13 37  1  0
 13 38  1  0
 14 15  1  0
 14 39  1  0
 14 40  1  0
 15 16  1  1
 15 17  1  0
 17 18  2  0
 17 25  1  0
 18 19  1  0
 19 20  2  0
 19 24  1  0
 20 21  1  0
 20 41  1  0
 21 22  2  0
 21 42  1  0
 22 23  1  0
 22 43  1  0
 23 24  2  0
 23 44  1  0
 24 25  1  0
M  END

