
     RDKit          3D

 50 51  0  0  0  0  0  0  0  0999 V2000
    9.4907    3.7690    3.0167 C   0  0  0  0  0  0  0  0  0  0  0  0
    8.7380    2.7094    2.2549 C   0  0  0  0  0  0  0  0  0  0  0  0
    8.5446    2.8283    0.8717 C   0  0  0  0  0  0  0  0  0  0  0  0
    7.8435    1.8726    0.1305 C   0  0  0  0  0  0  0  0  0  0  0  0
    7.3076    0.7376    0.7468 C   0  0  0  0  0  0  0  0  0  0  0  0
    6.5229   -0.3043   -0.0568 C   0  0  1  0  0  0  0  0  0  0  0  0
    6.4073    0.0416   -1.4154 O   0  0  0  0  0  0  0  0  0  0  0  0
    7.1420   -1.7138    0.0426 C   0  0  0  0  0  0  0  0  0  0  0  0
    8.3729   -1.7439   -0.7424 N   0  0  0  0  0  0  0  0  0  0  0  0
    8.9115   -3.0634   -1.0498 C   0  0  0  0  0  0  0  0  0  0  0  0
    8.2887   -3.6394   -2.3188 C   0  0  0  0  0  0  0  0  0  0  0  0
    8.8487   -4.9240   -2.5256 O   0  0  0  0  0  0  0  0  0  0  0  0
    8.5086   -5.6511   -3.6373 C   0  0  0  0  0  0  0  0  0  0  0  0
    7.5654   -5.2302   -4.5810 C   0  0  0  0  0  0  0  0  0  0  0  0
    7.2804   -6.0455   -5.6843 C   0  0  0  0  0  0  0  0  0  0  0  0
    7.9273   -7.2691   -5.8441 C   0  0  0  0  0  0  0  0  0  0  0  0
    8.8673   -7.6783   -4.8896 C   0  0  0  0  0  0  0  0  0  0  0  0
    9.1780   -6.8871   -3.7818 C   0  0  0  0  0  0  0  0  0  0  0  0
   10.2126   -7.3053   -2.7556 C   0  0  0  0  0  0  0  0  0  0  0  0
    9.7088   -7.3940   -1.4400 O   0  0  0  0  0  0  0  0  0  0  0  0
    7.4843    0.5966    2.1304 C   0  0  0  0  0  0  0  0  0  0  0  0
    8.1861    1.5584    2.8602 C   0  0  0  0  0  0  0  0  0  0  0  0
    8.2885    1.2787    4.6370 S   0  0  1  0  0  0  0  0  0  0  0  0
    9.9542    1.0965    4.9046 N   0  0  0  0  0  0  0  0  0  0  0  0
    7.9119    2.5015    5.3499 O   0  0  0  0  0  0  0  0  0  0  0  0
    7.6230    0.0032    4.9204 O   0  0  0  0  0  0  0  0  0  0  0  0
    9.8305    4.5648    2.3391 H   0  0  0  0  0  0  0  0  0  0  0  0
   10.3709    3.3376    3.5193 H   0  0  0  0  0  0  0  0  0  0  0  0
    8.8617    4.2112    3.8030 H   0  0  0  0  0  0  0  0  0  0  0  0
    8.9503    3.7066    0.3619 H   0  0  0  0  0  0  0  0  0  0  0  0
    7.6890    2.0070   -0.9412 H   0  0  0  0  0  0  0  0  0  0  0  0
    5.5019   -0.3497    0.3625 H   0  0  0  0  0  0  0  0  0  0  0  0
    7.1916   -0.3610   -1.8327 H   0  0  0  0  0  0  0  0  0  0  0  0
    6.4281   -2.4263   -0.3999 H   0  0  0  0  0  0  0  0  0  0  0  0
    7.2846   -2.0135    1.1001 H   0  0  0  0  0  0  0  0  0  0  0  0
    9.0825   -1.1708   -0.2896 H   0  0  0  0  0  0  0  0  0  0  0  0
    8.7720   -3.7874   -0.2206 H   0  0  0  0  0  0  0  0  0  0  0  0
    9.9973   -2.9771   -1.2124 H   0  0  0  0  0  0  0  0  0  0  0  0
    8.5072   -2.9753   -3.1741 H   0  0  0  0  0  0  0  0  0  0  0  0
    7.1897   -3.7107   -2.2213 H   0  0  0  0  0  0  0  0  0  0  0  0
    7.0478   -4.2774   -4.4700 H   0  0  0  0  0  0  0  0  0  0  0  0
    6.5417   -5.7118   -6.4175 H   0  0  0  0  0  0  0  0  0  0  0  0
    7.7024   -7.9064   -6.7023 H   0  0  0  0  0  0  0  0  0  0  0  0
    9.3762   -8.6396   -5.0067 H   0  0  0  0  0  0  0  0  0  0  0  0
   11.0720   -6.6035   -2.8088 H   0  0  0  0  0  0  0  0  0  0  0  0
   10.5996   -8.3020   -3.0181 H   0  0  0  0  0  0  0  0  0  0  0  0
    9.3610   -6.5164   -1.2277 H   0  0  0  0  0  0  0  0  0  0  0  0
    7.0696   -0.2568    2.6708 H   0  0  0  0  0  0  0  0  0  0  0  0
   10.1926    1.5897    5.7667 H   0  0  0  0  0  0  0  0  0  0  0  0
   10.1938    0.1064    4.9698 H   0  0  0  0  0  0  0  0  0  0  0  0
  1  2  1  0
  1 27  1  0
  1 28  1  0
  1 29  1  0
  2  3  2  0
  2 22  1  0
  3  4  1  0
  3 30  1  0
  4  5  2  0
  4 31  1  0
  5  6  1  0
  5 21  1  0
  6  7  1  0
  6  8  1  0
  6 32  1  1
  7 33  1  0
  8  9  1  0
  8 34  1  0
  8 35  1  0
  9 10  1  0
  9 36  1  0
 10 11  1  0
 10 37  1  0
 10 38  1  0
 11 12  1  0
 11 39  1  0
 11 40  1  0
 12 13  1  0
 13 14  2  0
 13 18  1  0
 14 15  1  0
 14 41  1  0
 15 16  2  0
 15 42  1  0
 16 17  1  0
 16 43  1  0
 17 18  2  0
 17 44  1  0
 18 19  1  0
 19 20  1  0
 19 45  1  0
 19 46  1  0
 20 47  1  0
 21 22  2  0
 21 48  1  0
 22 23  1  0
 23 24  1  6
 23 25  2  0
 23 26  2  0
 24 49  1  0
 24 50  1  0
M  END

