
     RDKit          3D

 31 30  0  0  0  0  0  0  0  0999 V2000
    2.2441    2.3490   -3.9620 C   0  0  0  0  0  0  0  0  0  0  0  0
    3.4938    2.8311   -3.5204 O   0  0  0  0  0  0  0  0  0  0  0  0
    3.7978    2.6035   -2.2189 C   0  0  0  0  0  0  0  0  0  0  0  0
    4.8785    3.1290   -1.6280 C   0  0  0  0  0  0  0  0  0  0  0  0
    5.2410    2.8672   -0.1854 C   0  0  1  0  0  0  0  0  0  0  0  0
    4.4820    1.8130    0.3877 O   0  0  0  0  0  0  0  0  0  0  0  0
    6.7449    2.6001    0.0013 C   0  0  0  0  0  0  0  0  0  0  0  0
    7.6416    3.8129   -0.2227 C   0  0  0  0  0  0  0  0  0  0  0  0
    7.1678    4.9291   -0.2592 O   0  0  0  0  0  0  0  0  0  0  0  0
    9.1610    3.5849   -0.4071 C   0  0  1  0  0  0  0  0  0  0  0  0
    9.3784    3.0905   -1.8574 C   0  0  0  0  0  0  0  0  0  0  0  0
    9.8952    4.9191   -0.2050 C   0  0  0  0  0  0  0  0  0  0  0  0
    9.6946    2.5341    0.5868 C   0  0  0  0  0  0  0  0  0  0  0  0
    2.1757    2.5590   -5.0382 H   0  0  0  0  0  0  0  0  0  0  0  0
    1.4042    2.8529   -3.4487 H   0  0  0  0  0  0  0  0  0  0  0  0
    2.1469    1.2577   -3.8077 H   0  0  0  0  0  0  0  0  0  0  0  0
    3.1052    1.9567   -1.6653 H   0  0  0  0  0  0  0  0  0  0  0  0
    5.5175    3.8086   -2.1987 H   0  0  0  0  0  0  0  0  0  0  0  0
    4.9947    3.7601    0.4137 H   0  0  0  0  0  0  0  0  0  0  0  0
    4.6641    1.0138   -0.1278 H   0  0  0  0  0  0  0  0  0  0  0  0
    7.0692    1.7598   -0.6370 H   0  0  0  0  0  0  0  0  0  0  0  0
    6.8981    2.2667    1.0432 H   0  0  0  0  0  0  0  0  0  0  0  0
    9.0089    3.8273   -2.5878 H   0  0  0  0  0  0  0  0  0  0  0  0
    8.8709    2.1323   -2.0514 H   0  0  0  0  0  0  0  0  0  0  0  0
   10.4543    2.9403   -2.0433 H   0  0  0  0  0  0  0  0  0  0  0  0
    9.5125    5.6888   -0.8892 H   0  0  0  0  0  0  0  0  0  0  0  0
   10.9745    4.7907   -0.3846 H   0  0  0  0  0  0  0  0  0  0  0  0
    9.7595    5.2965    0.8205 H   0  0  0  0  0  0  0  0  0  0  0  0
    9.2436    1.5420    0.4335 H   0  0  0  0  0  0  0  0  0  0  0  0
    9.5110    2.8357    1.6309 H   0  0  0  0  0  0  0  0  0  0  0  0
   10.7836    2.4214    0.4611 H   0  0  0  0  0  0  0  0  0  0  0  0
  1  2  1  0
  1 14  1  0
  1 15  1  0
  1 16  1  0
  2  3  1  0
  3  4  2  0
  3 17  1  0
  4  5  1  0
  4 18  1  0
  5  6  1  0
  5  7  1  0
  5 19  1  1
  6 20  1  0
  7  8  1  0
  7 21  1  0
  7 22  1  0
  8  9  2  0
 10  8  1  1
 10 11  1  0
 10 12  1  0
 10 13  1  0
 11 23  1  0
 11 24  1  0
 11 25  1  0
 12 26  1  0
 12 27  1  0
 12 28  1  0
 13 29  1  0
 13 30  1  0
 13 31  1  0
M  END

