
     RDKit          3D

 49 51  0  0  0  0  0  0  0  0999 V2000
    1.0184   -0.1234   -1.3346 C   0  0  0  0  0  0  0  0  0  0  0  0
    2.4230   -0.1307   -1.4269 O   0  0  0  0  0  0  0  0  0  0  0  0
    3.0851   -1.3101   -1.5603 C   0  0  0  0  0  0  0  0  0  0  0  0
    4.4824   -1.2244   -1.6509 C   0  0  0  0  0  0  0  0  0  0  0  0
    5.2203   -2.3983   -1.7821 C   0  0  0  0  0  0  0  0  0  0  0  0
    4.6004   -3.6478   -1.8317 C   0  0  0  0  0  0  0  0  0  0  0  0
    3.1976   -3.7474   -1.7377 C   0  0  0  0  0  0  0  0  0  0  0  0
    2.5689   -5.0075   -1.8152 N   0  0  0  0  0  0  0  0  0  0  0  0
    1.1225   -5.0771   -1.9512 C   0  0  0  0  0  0  0  0  0  0  0  0
    0.6953   -6.4363   -2.5050 C   0  0  0  0  0  0  0  0  0  0  0  0
    1.2383   -7.5299   -1.7064 N   0  0  0  0  0  0  0  0  0  0  0  0
    0.4015   -8.5326   -1.2903 C   0  0  0  0  0  0  0  0  0  0  0  0
   -0.8041   -8.5001   -1.4770 O   0  0  0  0  0  0  0  0  0  0  0  0
    1.0400   -9.7301   -0.5467 C   0  0  1  0  0  0  0  0  0  0  0  0
   -0.0242  -10.7074   -0.0726 C   0  0  0  0  0  0  0  0  0  0  0  0
    1.9400  -10.3394   -1.4778 O   0  0  0  0  0  0  0  0  0  0  0  0
    2.9687  -11.1262   -1.0620 C   0  0  0  0  0  0  0  0  0  0  0  0
    3.3165  -11.3587    0.2778 C   0  0  0  0  0  0  0  0  0  0  0  0
    4.4205  -12.1690    0.5692 C   0  0  0  0  0  0  0  0  0  0  0  0
    5.1824  -12.7550   -0.4403 C   0  0  0  0  0  0  0  0  0  0  0  0
    4.8167  -12.5146   -1.7708 C   0  0  0  0  0  0  0  0  0  0  0  0
    5.7515  -13.2369   -3.0613 Cl  0  0  0  0  0  0  0  0  0  0  0  0
    3.7253  -11.7128   -2.0921 C   0  0  0  0  0  0  0  0  0  0  0  0
    2.6848   -7.4640   -1.5472 C   0  0  0  0  0  0  0  0  0  0  0  0
    3.0992   -6.0964   -1.0014 C   0  0  0  0  0  0  0  0  0  0  0  0
    2.4470   -2.5598   -1.5934 C   0  0  0  0  0  0  0  0  0  0  0  0
    0.7150    0.9291   -1.2511 H   0  0  0  0  0  0  0  0  0  0  0  0
    0.6587   -0.6679   -0.4422 H   0  0  0  0  0  0  0  0  0  0  0  0
    0.5418   -0.5606   -2.2311 H   0  0  0  0  0  0  0  0  0  0  0  0
    4.9547   -0.2414   -1.6204 H   0  0  0  0  0  0  0  0  0  0  0  0
    6.3090   -2.3408   -1.8649 H   0  0  0  0  0  0  0  0  0  0  0  0
    5.2065   -4.5425   -1.9788 H   0  0  0  0  0  0  0  0  0  0  0  0
    0.7880   -4.3017   -2.6550 H   0  0  0  0  0  0  0  0  0  0  0  0
    0.6059   -4.8970   -0.9824 H   0  0  0  0  0  0  0  0  0  0  0  0
    1.0598   -6.5317   -3.5449 H   0  0  0  0  0  0  0  0  0  0  0  0
   -0.3972   -6.5313   -2.5073 H   0  0  0  0  0  0  0  0  0  0  0  0
    1.6092   -9.3375    0.3157 H   0  0  0  0  0  0  0  0  0  0  0  0
   -0.6217  -11.0528   -0.9269 H   0  0  0  0  0  0  0  0  0  0  0  0
   -0.7051  -10.2122    0.6341 H   0  0  0  0  0  0  0  0  0  0  0  0
    0.4362  -11.5736    0.4237 H   0  0  0  0  0  0  0  0  0  0  0  0
    2.7394  -10.9281    1.0955 H   0  0  0  0  0  0  0  0  0  0  0  0
    4.6863  -12.3484    1.6141 H   0  0  0  0  0  0  0  0  0  0  0  0
    6.0402  -13.3882   -0.2124 H   0  0  0  0  0  0  0  0  0  0  0  0
    3.4438  -11.5282   -3.1289 H   0  0  0  0  0  0  0  0  0  0  0  0
    3.1724   -7.6338   -2.5251 H   0  0  0  0  0  0  0  0  0  0  0  0
    3.0400   -8.2431   -0.8650 H   0  0  0  0  0  0  0  0  0  0  0  0
    4.1944   -6.0464   -0.9741 H   0  0  0  0  0  0  0  0  0  0  0  0
    2.7409   -6.0075    0.0487 H   0  0  0  0  0  0  0  0  0  0  0  0
    1.3669   -2.6128   -1.4864 H   0  0  0  0  0  0  0  0  0  0  0  0
  1  2  1  0
  1 27  1  0
  1 28  1  0
  1 29  1  0
  2  3  1  0
  3  4  2  0
  3 26  1  0
  4  5  1  0
  4 30  1  0
  5  6  2  0
  5 31  1  0
  6  7  1  0
  6 32  1  0
  7  8  1  0
  7 26  2  0
  8  9  1  0
  8 25  1  0
  9 10  1  0
  9 33  1  0
  9 34  1  0
 10 11  1  0
 10 35  1  0
 10 36  1  0
 11 12  1  0
 11 24  1  0
 12 13  2  0
 12 14  1  0
 14 15  1  0
 14 16  1  0
 14 37  1  1
 15 38  1  0
 15 39  1  0
 15 40  1  0
 16 17  1  0
 17 18  2  0
 17 23  1  0
 18 19  1  0
 18 41  1  0
 19 20  2  0
 19 42  1  0
 20 21  1  0
 20 43  1  0
 21 22  1  0
 21 23  2  0
 23 44  1  0
 24 25  1  0
 24 45  1  0
 24 46  1  0
 25 47  1  0
 25 48  1  0
 26 49  1  0
M  END

