
     RDKit          3D

 50 53  0  0  0  0  0  0  0  0999 V2000
    2.1588   -0.5278    3.1270 C   0  0  0  0  0  0  0  0  0  0  0  0
    2.7942   -0.0098    1.8635 C   0  0  0  0  0  0  0  0  0  0  0  0
    3.5168    1.1900    1.8625 C   0  0  0  0  0  0  0  0  0  0  0  0
    4.1254    1.6424    0.6889 C   0  0  0  0  0  0  0  0  0  0  0  0
    4.0661    0.9833   -0.4693 N   0  0  0  0  0  0  0  0  0  0  0  0
    3.3688   -0.1530   -0.4842 C   0  0  0  0  0  0  0  0  0  0  0  0
    2.7068   -0.6943    0.6290 C   0  0  0  0  0  0  0  0  0  0  0  0
    2.0212   -2.0328    0.5330 C   0  0  0  0  0  0  0  0  0  0  0  0
    2.2375   -2.9196    1.3495 O   0  0  0  0  0  0  0  0  0  0  0  0
    1.1657   -2.2404   -0.5174 N   0  0  0  0  0  0  0  0  0  0  0  0
    0.5012   -3.5460   -0.6339 C   0  0  0  0  0  0  0  0  0  0  0  0
   -0.4700   -3.3637   -1.8036 C   0  0  0  0  0  0  0  0  0  0  0  0
   -0.8039   -1.8539   -1.7514 C   0  0  2  0  0  0  0  0  0  0  0  0
   -1.3924   -1.3149   -3.0105 C   0  0  0  0  0  0  0  0  0  0  0  0
   -0.8182   -1.1349   -4.1626 N   0  0  0  0  0  0  0  0  0  0  0  0
   -1.8451   -0.6481   -4.9401 C   0  0  0  0  0  0  0  0  0  0  0  0
   -1.6771   -0.2792   -6.3781 C   0  0  0  0  0  0  0  0  0  0  0  0
   -2.9511    0.2406   -7.0292 C   0  0  0  0  0  0  0  0  0  0  0  0
   -2.6324    0.5400   -8.3741 O   0  0  0  0  0  0  0  0  0  0  0  0
   -3.5983    1.0279   -9.1997 C   0  0  0  0  0  0  0  0  0  0  0  0
   -4.9260    1.2672   -8.8142 C   0  0  0  0  0  0  0  0  0  0  0  0
   -5.8436    1.7721   -9.7444 C   0  0  0  0  0  0  0  0  0  0  0  0
   -5.4315    2.0331  -11.0452 C   0  0  0  0  0  0  0  0  0  0  0  0
   -6.3137    2.5176  -11.9361 F   0  0  0  0  0  0  0  0  0  0  0  0
   -4.1145    1.8007  -11.4448 C   0  0  0  0  0  0  0  0  0  0  0  0
   -3.2018    1.2990  -10.5213 C   0  0  0  0  0  0  0  0  0  0  0  0
   -2.9844   -0.5353   -4.3034 N   0  0  0  0  0  0  0  0  0  0  0  0
   -2.6891   -0.9768   -3.0183 O   0  0  0  0  0  0  0  0  0  0  0  0
    0.5649   -1.2359   -1.3983 C   0  0  0  0  0  0  0  0  0  0  0  0
    2.2611    0.1988    3.9455 H   0  0  0  0  0  0  0  0  0  0  0  0
    2.6216   -1.4803    3.4234 H   0  0  0  0  0  0  0  0  0  0  0  0
    1.0878   -0.7420    2.9828 H   0  0  0  0  0  0  0  0  0  0  0  0
    3.6104    1.7727    2.7826 H   0  0  0  0  0  0  0  0  0  0  0  0
    4.6905    2.5823    0.6911 H   0  0  0  0  0  0  0  0  0  0  0  0
    3.3453   -0.6912   -1.4390 H   0  0  0  0  0  0  0  0  0  0  0  0
   -0.0159   -3.7866    0.3110 H   0  0  0  0  0  0  0  0  0  0  0  0
    1.2356   -4.3481   -0.8037 H   0  0  0  0  0  0  0  0  0  0  0  0
   -1.3624   -4.0006   -1.7216 H   0  0  0  0  0  0  0  0  0  0  0  0
    0.0227   -3.5880   -2.7629 H   0  0  0  0  0  0  0  0  0  0  0  0
   -1.5209   -1.6668   -0.9368 H   0  0  0  0  0  0  0  0  0  0  0  0
   -1.3093   -1.1605   -6.9296 H   0  0  0  0  0  0  0  0  0  0  0  0
   -0.8806    0.4793   -6.4582 H   0  0  0  0  0  0  0  0  0  0  0  0
   -3.3171    1.1395   -6.5008 H   0  0  0  0  0  0  0  0  0  0  0  0
   -3.7523   -0.5184   -6.9732 H   0  0  0  0  0  0  0  0  0  0  0  0
   -5.2625    1.0670   -7.7970 H   0  0  0  0  0  0  0  0  0  0  0  0
   -6.8806    1.9644   -9.4621 H   0  0  0  0  0  0  0  0  0  0  0  0
   -3.8204    2.0157  -12.4741 H   0  0  0  0  0  0  0  0  0  0  0  0
   -2.1646    1.1066  -10.8025 H   0  0  0  0  0  0  0  0  0  0  0  0
    0.4740   -0.2615   -0.8982 H   0  0  0  0  0  0  0  0  0  0  0  0
    1.1462   -1.0893   -2.3246 H   0  0  0  0  0  0  0  0  0  0  0  0
  1  2  1  0
  1 30  1  0
  1 31  1  0
  1 32  1  0
  2  3  2  0
  2  7  1  0
  3  4  1  0
  3 33  1  0
  4  5  2  0
  4 34  1  0
  5  6  1  0
  6  7  2  0
  6 35  1  0
  7  8  1  0
  8  9  2  0
  8 10  1  0
 10 11  1  0
 10 29  1  0
 11 12  1  0
 11 36  1  0
 11 37  1  0
 12 13  1  0
 12 38  1  0
 12 39  1  0
 13 14  1  0
 13 29  1  0
 13 40  1  1
 14 15  2  0
 14 28  1  0
 15 16  1  0
 16 17  1  0
 16 27  2  0
 17 18  1  0
 17 41  1  0
 17 42  1  0
 18 19  1  0
 18 43  1  0
 18 44  1  0
 19 20  1  0
 20 21  2  0
 20 26  1  0
 21 22  1  0
 21 45  1  0
 22 23  2  0
 22 46  1  0
 23 24  1  0
 23 25  1  0
 25 26  2  0
 25 47  1  0
 26 48  1  0
 27 28  1  0
 29 49  1  0
 29 50  1  0
M  END

