
     RDKit          3D

 57 59  0  0  0  0  0  0  0  0999 V2000
    2.0204   -0.8900    2.9507 C   0  0  0  0  0  0  0  0  0  0  0  0
    2.2493   -0.2506    1.7070 O   0  0  0  0  0  0  0  0  0  0  0  0
    3.0945   -0.8805    0.7684 C   0  0  2  0  0  0  0  0  0  0  0  0
    2.9523   -0.2939   -0.1539 H   0  0  0  0  0  0  0  0  0  0  0  0
    2.7295   -2.3238    0.4548 C   0  0  0  0  0  0  0  0  0  0  0  0
    3.3794   -3.4493    0.9833 C   0  0  0  0  0  0  0  0  0  0  0  0
    2.9597   -4.7451    0.6835 C   0  0  0  0  0  0  0  0  0  0  0  0
    1.8506   -4.9593   -0.1589 C   0  0  0  0  0  0  0  0  0  0  0  0
    1.3982   -6.2544   -0.4960 N   0  0  0  0  0  0  0  0  0  0  0  0
    0.3703   -6.4630   -1.5200 C   0  0  0  0  0  0  0  0  0  0  0  0
    0.4059   -7.9739   -1.7695 C   0  0  0  0  0  0  0  0  0  0  0  0
    0.8886   -8.5798   -0.4390 C   0  0  1  0  0  0  0  0  0  0  0  0
   -0.2968   -8.8474    0.5285 C   0  0  0  0  0  0  0  0  0  0  0  0
    0.1400   -9.5130    1.8354 C   0  0  0  0  0  0  0  0  0  0  0  0
    0.9028  -10.8228    1.6019 C   0  0  2  0  0  0  0  0  0  0  0  0
    0.2340  -11.5567    1.1182 H   0  0  0  0  0  0  0  0  0  0  0  0
    1.2836  -11.4224    2.8253 O   0  0  0  0  0  0  0  0  0  0  0  0
    2.0962  -10.6141    0.6561 C   0  0  1  0  0  0  0  0  0  0  0  0
    2.8460  -10.0009    1.1859 H   0  0  0  0  0  0  0  0  0  0  0  0
    2.6340  -11.8742    0.2965 O   0  0  0  0  0  0  0  0  0  0  0  0
    4.0329  -12.0751    0.4713 C   0  0  1  0  0  0  0  0  0  0  0  0
    4.3814  -12.3633    1.9321 C   0  0  0  0  0  0  0  0  0  0  0  0
    4.4247  -13.2232   -0.4523 C   0  0  0  0  0  0  0  0  0  0  0  0
    1.6821   -9.8846   -0.6339 C   0  0  0  0  0  0  0  0  0  0  0  0
    1.7520   -7.4406    0.1333 C   0  0  0  0  0  0  0  0  0  0  0  0
    2.5805   -7.5592    1.0183 O   0  0  0  0  0  0  0  0  0  0  0  0
    1.1863   -3.8322   -0.6837 C   0  0  0  0  0  0  0  0  0  0  0  0
    1.6248   -2.5456   -0.3790 C   0  0  0  0  0  0  0  0  0  0  0  0
    4.5739   -0.6409    1.1094 C   0  0  1  0  0  0  0  0  0  0  0  0
    4.8228    0.6697    1.2178 F   0  0  0  0  0  0  0  0  0  0  0  0
    4.9549   -1.2108    2.2745 F   0  0  0  0  0  0  0  0  0  0  0  0
    5.3702   -1.1302    0.1444 F   0  0  0  0  0  0  0  0  0  0  0  0
    1.2726   -0.2778    3.4745 H   0  0  0  0  0  0  0  0  0  0  0  0
    2.9298   -0.9452    3.5724 H   0  0  0  0  0  0  0  0  0  0  0  0
    1.6158   -1.9097    2.8253 H   0  0  0  0  0  0  0  0  0  0  0  0
    4.2407   -3.3291    1.6412 H   0  0  0  0  0  0  0  0  0  0  0  0
    3.4804   -5.5996    1.1066 H   0  0  0  0  0  0  0  0  0  0  0  0
    0.6063   -5.8829   -2.4249 H   0  0  0  0  0  0  0  0  0  0  0  0
   -0.6163   -6.1228   -1.1562 H   0  0  0  0  0  0  0  0  0  0  0  0
    1.1352   -8.1994   -2.5641 H   0  0  0  0  0  0  0  0  0  0  0  0
   -0.5696   -8.3672   -2.0914 H   0  0  0  0  0  0  0  0  0  0  0  0
   -1.0069   -9.5086    0.0002 H   0  0  0  0  0  0  0  0  0  0  0  0
   -0.8421   -7.9120    0.7399 H   0  0  0  0  0  0  0  0  0  0  0  0
   -0.7360   -9.7236    2.4698 H   0  0  0  0  0  0  0  0  0  0  0  0
    0.7898   -8.8248    2.4036 H   0  0  0  0  0  0  0  0  0  0  0  0
    1.8257  -10.7859    3.3116 H   0  0  0  0  0  0  0  0  0  0  0  0
    4.5744  -11.1615    0.1484 H   0  0  0  0  0  0  0  0  0  0  0  0
    3.8175  -13.2387    2.2894 H   0  0  0  0  0  0  0  0  0  0  0  0
    4.1249  -11.5138    2.5821 H   0  0  0  0  0  0  0  0  0  0  0  0
    5.4599  -12.5599    2.0448 H   0  0  0  0  0  0  0  0  0  0  0  0
    3.8811  -14.1388   -0.1695 H   0  0  0  0  0  0  0  0  0  0  0  0
    5.5051  -13.4271   -0.3923 H   0  0  0  0  0  0  0  0  0  0  0  0
    4.1684  -12.9834   -1.4953 H   0  0  0  0  0  0  0  0  0  0  0  0
    1.0573  -10.5842   -1.2168 H   0  0  0  0  0  0  0  0  0  0  0  0
    2.5843   -9.6951   -1.2387 H   0  0  0  0  0  0  0  0  0  0  0  0
    0.3188   -3.9471   -1.3329 H   0  0  0  0  0  0  0  0  0  0  0  0
    1.0874   -1.6907   -0.7990 H   0  0  0  0  0  0  0  0  0  0  0  0
  1  2  1  0
  1 33  1  0
  1 34  1  0
  1 35  1  0
  2  3  1  0
  3  4  1  6
  3  5  1  0
  3 29  1  0
  5  6  2  0
  5 28  1  0
  6  7  1  0
  6 36  1  0
  7  8  2  0
  7 37  1  0
  8  9  1  0
  8 27  1  0
  9 10  1  0
  9 25  1  0
 10 11  1  0
 10 38  1  0
 10 39  1  0
 11 12  1  0
 11 40  1  0
 11 41  1  0
 12 13  1  0
 12 24  1  0
 12 25  1  1
 13 14  1  0
 13 42  1  0
 13 43  1  0
 14 15  1  0
 14 44  1  0
 14 45  1  0
 15 16  1  6
 15 17  1  0
 15 18  1  0
 17 46  1  0
 18 19  1  1
 18 20  1  0
 18 24  1  0
 20 21  1  0
 21 22  1  0
 21 23  1  0
 21 47  1  6
 22 48  1  0
 22 49  1  0
 22 50  1  0
 23 51  1  0
 23 52  1  0
 23 53  1  0
 24 54  1  0
 24 55  1  0
 25 26  2  0
 27 28  2  0
 27 56  1  0
 28 57  1  0
 29 30  1  1
 29 31  1  0
 29 32  1  0
M  END

