
     RDKit          3D

 67 70  0  0  0  0  0  0  0  0999 V2000
    8.5985    1.6425    1.2060 C   0  0  0  0  0  0  0  0  0  0  0  0
    7.3141    2.3677    0.8444 C   0  0  0  0  0  0  0  0  0  0  0  0
    6.8000    3.1155    1.9677 O   0  0  0  0  0  0  0  0  0  0  0  0
    5.9991    2.4717    2.8281 C   0  0  0  0  0  0  0  0  0  0  0  0
    5.6446    1.3277    2.7218 O   0  0  0  0  0  0  0  0  0  0  0  0
    5.5935    3.4367    3.9398 C   0  0  0  0  0  0  0  0  0  0  0  0
    4.6909    2.6576    5.3108 S   0  0  0  0  0  0  0  0  0  0  0  0
    6.0046    1.7391    6.0182 C   0  0  0  0  0  0  0  0  0  0  0  0
    7.2514    1.8014    5.6297 N   0  0  0  0  0  0  0  0  0  0  0  0
    8.0667    0.9616    6.3076 N   0  0  0  0  0  0  0  0  0  0  0  0
    7.4636    0.2589    7.2201 C   0  0  0  0  0  0  0  0  0  0  0  0
    8.1257   -0.6127    8.0941 N   0  0  0  0  0  0  0  0  0  0  0  0
    8.9232   -0.0517    9.1218 C   0  0  0  0  0  0  0  0  0  0  0  0
    9.0770    1.3137    9.0643 N   0  0  0  0  0  0  0  0  0  0  0  0
    9.4190   -0.8392   10.1251 C   0  0  0  0  0  0  0  0  0  0  0  0
   10.2047   -0.2008   11.1249 C   0  0  0  0  0  0  0  0  0  0  0  0
   10.8357    0.3607   11.9275 N   0  0  0  0  0  0  0  0  0  0  0  0
    9.2270   -2.3465   10.1919 C   0  0  2  0  0  0  0  0  0  0  0  0
   10.5828   -3.0636   10.1358 C   0  0  0  0  0  0  0  0  0  0  0  0
   11.3482   -3.0388    8.9628 C   0  0  0  0  0  0  0  0  0  0  0  0
   12.5953   -3.6751    8.8929 C   0  0  0  0  0  0  0  0  0  0  0  0
   13.3962   -3.6931    7.7881 O   0  0  0  0  0  0  0  0  0  0  0  0
   12.9839   -3.0051    6.6343 C   0  0  0  0  0  0  0  0  0  0  0  0
   13.0766   -4.3453   10.0242 C   0  0  0  0  0  0  0  0  0  0  0  0
   12.3317   -4.3679   11.2017 C   0  0  0  0  0  0  0  0  0  0  0  0
   11.0857   -3.7235   11.2736 C   0  0  0  0  0  0  0  0  0  0  0  0
   10.3188   -3.6817   12.3970 O   0  0  0  0  0  0  0  0  0  0  0  0
   10.7427   -4.3588   13.5546 C   0  0  0  0  0  0  0  0  0  0  0  0
    8.3012   -2.8080    9.0840 C   0  0  0  0  0  0  0  0  0  0  0  0
    7.8387   -1.9976    8.0951 C   0  0  0  0  0  0  0  0  0  0  0  0
    7.0010   -2.5052    6.9428 C   0  0  0  0  0  0  0  0  0  0  0  0
    7.1182   -4.0251    6.6913 C   0  0  2  0  0  0  0  0  0  0  0  0
    8.4853   -4.3769    6.0727 C   0  0  0  0  0  0  0  0  0  0  0  0
    6.0067   -4.4553    5.7201 C   0  0  0  0  0  0  0  0  0  0  0  0
    6.9423   -4.7339    8.0444 C   0  0  0  0  0  0  0  0  0  0  0  0
    7.8764   -4.2287    9.1345 C   0  0  0  0  0  0  0  0  0  0  0  0
    8.2161   -4.9535   10.0527 O   0  0  0  0  0  0  0  0  0  0  0  0
    5.7288    0.6183    7.3325 S   0  0  0  0  0  0  0  0  0  0  0  0
    9.0027    1.1335    0.3163 H   0  0  0  0  0  0  0  0  0  0  0  0
    8.4150    0.8849    1.9821 H   0  0  0  0  0  0  0  0  0  0  0  0
    9.3586    2.3477    1.5759 H   0  0  0  0  0  0  0  0  0  0  0  0
    6.5410    1.6631    0.5045 H   0  0  0  0  0  0  0  0  0  0  0  0
    7.4834    3.1221    0.0627 H   0  0  0  0  0  0  0  0  0  0  0  0
    4.9068    4.1950    3.5320 H   0  0  0  0  0  0  0  0  0  0  0  0
    6.4857    3.9542    4.3161 H   0  0  0  0  0  0  0  0  0  0  0  0
    9.2176    1.7068    8.1369 H   0  0  0  0  0  0  0  0  0  0  0  0
    9.7014    1.6915    9.7706 H   0  0  0  0  0  0  0  0  0  0  0  0
    8.7761   -2.6258   11.1548 H   0  0  0  0  0  0  0  0  0  0  0  0
   10.9511   -2.5028    8.0997 H   0  0  0  0  0  0  0  0  0  0  0  0
   13.7774   -3.1386    5.8858 H   0  0  0  0  0  0  0  0  0  0  0  0
   12.8499   -1.9231    6.8205 H   0  0  0  0  0  0  0  0  0  0  0  0
   12.0393   -3.4085    6.2235 H   0  0  0  0  0  0  0  0  0  0  0  0
   14.0475   -4.8413    9.9656 H   0  0  0  0  0  0  0  0  0  0  0  0
   12.7353   -4.8904   12.0690 H   0  0  0  0  0  0  0  0  0  0  0  0
    9.9643   -4.1998   14.3132 H   0  0  0  0  0  0  0  0  0  0  0  0
   11.6997   -3.9607   13.9389 H   0  0  0  0  0  0  0  0  0  0  0  0
   10.8525   -5.4444   13.3789 H   0  0  0  0  0  0  0  0  0  0  0  0
    7.2756   -1.9575    6.0260 H   0  0  0  0  0  0  0  0  0  0  0  0
    5.9398   -2.2597    7.1287 H   0  0  0  0  0  0  0  0  0  0  0  0
    8.6199   -3.8668    5.1049 H   0  0  0  0  0  0  0  0  0  0  0  0
    8.5565   -5.4613    5.8923 H   0  0  0  0  0  0  0  0  0  0  0  0
    9.3244   -4.0952    6.7263 H   0  0  0  0  0  0  0  0  0  0  0  0
    6.0990   -3.9331    4.7535 H   0  0  0  0  0  0  0  0  0  0  0  0
    5.0065   -4.2357    6.1279 H   0  0  0  0  0  0  0  0  0  0  0  0
    6.0586   -5.5378    5.5230 H   0  0  0  0  0  0  0  0  0  0  0  0
    7.0830   -5.8226    7.9637 H   0  0  0  0  0  0  0  0  0  0  0  0
    5.9101   -4.5776    8.4114 H   0  0  0  0  0  0  0  0  0  0  0  0
  1  2  1  0
  1 39  1  0
  1 40  1  0
  1 41  1  0
  2  3  1  0
  2 42  1  0
  2 43  1  0
  3  4  1  0
  4  5  2  0
  4  6  1  0
  6  7  1  0
  6 44  1  0
  6 45  1  0
  7  8  1  0
  8  9  2  0
  8 38  1  0
  9 10  1  0
 10 11  2  0
 11 12  1  0
 11 38  1  0
 12 13  1  0
 12 30  1  0
 13 14  1  0
 13 15  2  0
 14 46  1  0
 14 47  1  0
 15 16  1  0
 15 18  1  0
 16 17  3  0
 18 19  1  0
 18 29  1  0
 18 48  1  1
 19 20  2  0
 19 26  1  0
 20 21  1  0
 20 49  1  0
 21 22  1  0
 21 24  2  0
 22 23  1  0
 23 50  1  0
 23 51  1  0
 23 52  1  0
 24 25  1  0
 24 53  1  0
 25 26  2  0
 25 54  1  0
 26 27  1  0
 27 28  1  0
 28 55  1  0
 28 56  1  0
 28 57  1  0
 29 30  2  0
 29 36  1  0
 30 31  1  0
 31 32  1  0
 31 58  1  0
 31 59  1  0
 32 33  1  6
 32 34  1  0
 32 35  1  0
 33 60  1  0
 33 61  1  0
 33 62  1  0
 34 63  1  0
 34 64  1  0
 34 65  1  0
 35 36  1  0
 35 66  1  0
 35 67  1  0
 36 37  2  0
M  END

