
     RDKit          3D

 38 40  0  0  0  0  0  0  0  0999 V2000
    1.1623   -0.2929    0.4247 C   0  0  0  0  0  0  0  0  0  0  0  0
    2.6552   -0.2948    0.1994 C   0  0  0  0  0  0  0  0  0  0  0  0
    3.5131   -1.1292    0.9241 C   0  0  0  0  0  0  0  0  0  0  0  0
    4.8964   -1.1381    0.7116 C   0  0  0  0  0  0  0  0  0  0  0  0
    5.4772   -0.2898   -0.2496 C   0  0  0  0  0  0  0  0  0  0  0  0
    6.8449   -0.2403   -0.4733 N   0  0  0  0  0  0  0  0  0  0  0  0
    7.7441   -1.2400    0.0330 C   0  0  0  0  0  0  0  0  0  0  0  0
    9.1124   -1.0198   -0.5385 C   0  0  0  0  0  0  0  0  0  0  0  0
    9.3852   -0.4513   -1.6958 N   0  0  0  0  0  0  0  0  0  0  0  0
   10.7499   -0.5228   -1.7836 C   0  0  0  0  0  0  0  0  0  0  0  0
   11.5169   -0.0016   -2.9261 C   0  0  0  0  0  0  0  0  0  0  0  0
   10.8542    0.5994   -4.0100 C   0  0  0  0  0  0  0  0  0  0  0  0
   11.5758    1.0967   -5.0983 C   0  0  0  0  0  0  0  0  0  0  0  0
   12.9678    1.0036   -5.1258 C   0  0  0  0  0  0  0  0  0  0  0  0
   13.6108    0.4032   -4.0410 C   0  0  0  0  0  0  0  0  0  0  0  0
   15.0881    0.2971   -4.0564 N   0  0  0  0  0  0  0  0  0  0  0  0
   15.6741    0.7445   -5.0290 O   0  0  0  0  0  0  0  0  0  0  0  0
   15.6269   -0.2301   -3.0976 O   0  0  0  0  0  0  0  0  0  0  0  0
   12.9164   -0.0998   -2.9451 C   0  0  0  0  0  0  0  0  0  0  0  0
   11.3225   -1.1095   -0.7393 N   0  0  0  0  0  0  0  0  0  0  0  0
   10.2705   -1.4159    0.0415 N   0  0  0  0  0  0  0  0  0  0  0  0
   10.4147   -1.8731    0.9353 H   0  0  0  0  0  0  0  0  0  0  0  0
    4.6169    0.5556   -0.9857 C   0  0  0  0  0  0  0  0  0  0  0  0
    3.2452    0.5473   -0.7621 C   0  0  0  0  0  0  0  0  0  0  0  0
    0.8783   -0.9683    1.2456 H   0  0  0  0  0  0  0  0  0  0  0  0
    0.6144   -0.6178   -0.4767 H   0  0  0  0  0  0  0  0  0  0  0  0
    0.7907    0.7145    0.6783 H   0  0  0  0  0  0  0  0  0  0  0  0
    3.0951   -1.8000    1.6808 H   0  0  0  0  0  0  0  0  0  0  0  0
    5.5170   -1.8092    1.3080 H   0  0  0  0  0  0  0  0  0  0  0  0
    7.1541    0.1892   -1.3395 H   0  0  0  0  0  0  0  0  0  0  0  0
    7.4146   -2.2737   -0.2199 H   0  0  0  0  0  0  0  0  0  0  0  0
    7.8043   -1.2065    1.1379 H   0  0  0  0  0  0  0  0  0  0  0  0
    9.7656    0.6690   -3.9850 H   0  0  0  0  0  0  0  0  0  0  0  0
   11.0479    1.5614   -5.9341 H   0  0  0  0  0  0  0  0  0  0  0  0
   13.5609    1.3806   -5.9582 H   0  0  0  0  0  0  0  0  0  0  0  0
   13.4584   -0.5601   -2.1203 H   0  0  0  0  0  0  0  0  0  0  0  0
    5.0431    1.2263   -1.7375 H   0  0  0  0  0  0  0  0  0  0  0  0
    2.6107    1.2158   -1.3524 H   0  0  0  0  0  0  0  0  0  0  0  0
  1  2  1  0
  1 25  1  0
  1 26  1  0
  1 27  1  0
  2  3  2  0
  2 24  1  0
  3  4  1  0
  3 28  1  0
  4  5  2  0
  4 29  1  0
  5  6  1  0
  5 23  1  0
  6  7  1  0
  6 30  1  0
  7  8  1  0
  7 31  1  0
  7 32  1  0
  8  9  2  0
  8 21  1  0
  9 10  1  0
 10 11  1  0
 10 20  2  0
 11 12  2  0
 11 19  1  0
 12 13  1  0
 12 33  1  0
 13 14  2  0
 13 34  1  0
 14 15  1  0
 14 35  1  0
 15 16  1  0
 15 19  2  0
 16 17  2  0
 16 18  1  0
 19 36  1  0
 20 21  1  0
 21 22  1  0
 23 24  2  0
 23 37  1  0
 24 38  1  0
M  CHG  2  16   1  18  -1
M  END

