
     RDKit          3D

 54 56  0  0  0  0  0  0  0  0999 V2000
    0.8601    0.3448    2.6114 C   0  0  0  0  0  0  0  0  0  0  0  0
    2.2408    0.3614    2.0014 C   0  0  0  0  0  0  0  0  0  0  0  0
    2.5020   -0.2484    0.7702 C   0  0  0  0  0  0  0  0  0  0  0  0
    3.7757   -0.2310    0.1850 C   0  0  0  0  0  0  0  0  0  0  0  0
    4.0131   -0.9338   -1.1261 C   0  0  0  0  0  0  0  0  0  0  0  0
    4.8211    0.4272    0.8641 C   0  0  0  0  0  0  0  0  0  0  0  0
    6.1236    0.4806    0.2725 N   0  0  0  0  0  0  0  0  0  0  0  0
    6.7089    1.7232   -0.2358 C   0  0  0  0  0  0  0  0  0  0  0  0
    7.9392    1.2576   -1.0647 C   0  0  2  0  0  0  0  0  0  0  0  0
    7.6417    1.3225   -2.5725 C   0  0  0  0  0  0  0  0  0  0  0  0
    7.7046    2.3963   -3.1524 O   0  0  0  0  0  0  0  0  0  0  0  0
    7.2954    0.1693   -3.2128 N   0  0  0  0  0  0  0  0  0  0  0  0
    7.1420    0.1218   -4.6722 C   0  0  1  0  0  0  0  0  0  0  0  0
    7.3540   -1.3183   -5.1678 C   0  0  0  0  0  0  0  0  0  0  0  0
    6.1693   -2.2327   -4.8214 C   0  0  0  0  0  0  0  0  0  0  0  0
    4.8530   -1.6079   -5.3110 C   0  0  0  0  0  0  0  0  0  0  0  0
    4.6487   -0.2335   -4.8660 N   0  0  0  0  0  0  0  0  0  0  0  0
    5.7616    0.6825   -5.1307 C   0  0  2  0  0  0  0  0  0  0  0  0
    5.7896    1.1148   -6.6020 C   0  0  0  0  0  0  0  0  0  0  0  0
    8.2670   -0.1133   -0.4581 C   0  0  0  0  0  0  0  0  0  0  0  0
    6.9492   -0.6161    0.1353 C   0  0  0  0  0  0  0  0  0  0  0  0
    6.6824   -1.7589    0.4441 O   0  0  0  0  0  0  0  0  0  0  0  0
    4.5954    1.0313    2.1212 C   0  0  0  0  0  0  0  0  0  0  0  0
    5.7100    1.6940    2.8948 C   0  0  0  0  0  0  0  0  0  0  0  0
    3.3051    0.9907    2.6610 C   0  0  0  0  0  0  0  0  0  0  0  0
    0.1618   -0.2634    2.0179 H   0  0  0  0  0  0  0  0  0  0  0  0
    0.4419    1.3634    2.6809 H   0  0  0  0  0  0  0  0  0  0  0  0
    0.8793   -0.0643    3.6350 H   0  0  0  0  0  0  0  0  0  0  0  0
    1.6896   -0.7565    0.2423 H   0  0  0  0  0  0  0  0  0  0  0  0
    3.0668   -1.1207   -1.6543 H   0  0  0  0  0  0  0  0  0  0  0  0
    4.5141   -1.9006   -0.9533 H   0  0  0  0  0  0  0  0  0  0  0  0
    4.6769   -0.3525   -1.7845 H   0  0  0  0  0  0  0  0  0  0  0  0
    7.0247    2.3872    0.5866 H   0  0  0  0  0  0  0  0  0  0  0  0
    5.9830    2.2812   -0.8471 H   0  0  0  0  0  0  0  0  0  0  0  0
    8.7570    1.9791   -0.9350 H   0  0  0  0  0  0  0  0  0  0  0  0
    7.2914   -0.7031   -2.6994 H   0  0  0  0  0  0  0  0  0  0  0  0
    7.9241    0.7793   -5.0842 H   0  0  0  0  0  0  0  0  0  0  0  0
    8.3005   -1.7161   -4.7631 H   0  0  0  0  0  0  0  0  0  0  0  0
    7.4787   -1.2906   -6.2628 H   0  0  0  0  0  0  0  0  0  0  0  0
    6.1118   -2.3973   -3.7289 H   0  0  0  0  0  0  0  0  0  0  0  0
    6.3143   -3.2302   -5.2703 H   0  0  0  0  0  0  0  0  0  0  0  0
    3.9912   -2.2124   -4.9840 H   0  0  0  0  0  0  0  0  0  0  0  0
    4.8365   -1.6295   -6.4159 H   0  0  0  0  0  0  0  0  0  0  0  0
    4.4034   -0.2141   -3.8792 H   0  0  0  0  0  0  0  0  0  0  0  0
    5.5817    1.5897   -4.5348 H   0  0  0  0  0  0  0  0  0  0  0  0
    6.0160    0.2830   -7.2880 H   0  0  0  0  0  0  0  0  0  0  0  0
    6.5494    1.8956   -6.7624 H   0  0  0  0  0  0  0  0  0  0  0  0
    4.8067    1.5195   -6.8844 H   0  0  0  0  0  0  0  0  0  0  0  0
    8.9859   -0.0159    0.3730 H   0  0  0  0  0  0  0  0  0  0  0  0
    8.6984   -0.8494   -1.1511 H   0  0  0  0  0  0  0  0  0  0  0  0
    6.6553    1.1385    2.8002 H   0  0  0  0  0  0  0  0  0  0  0  0
    5.4583    1.7567    3.9634 H   0  0  0  0  0  0  0  0  0  0  0  0
    5.8983    2.7244    2.5462 H   0  0  0  0  0  0  0  0  0  0  0  0
    3.1301    1.4547    3.6367 H   0  0  0  0  0  0  0  0  0  0  0  0
  1  2  1  0
  1 26  1  0
  1 27  1  0
  1 28  1  0
  2  3  2  0
  2 25  1  0
  3  4  1  0
  3 29  1  0
  4  5  1  0
  4  6  2  0
  5 30  1  0
  5 31  1  0
  5 32  1  0
  6  7  1  0
  6 23  1  0
  7  8  1  0
  7 21  1  0
  8  9  1  0
  8 33  1  0
  8 34  1  0
  9 10  1  0
  9 20  1  0
  9 35  1  6
 10 11  2  0
 10 12  1  0
 12 13  1  0
 12 36  1  0
 13 14  1  0
 13 18  1  0
 13 37  1  6
 14 15  1  0
 14 38  1  0
 14 39  1  0
 15 16  1  0
 15 40  1  0
 15 41  1  0
 16 17  1  0
 16 42  1  0
 16 43  1  0
 17 18  1  0
 17 44  1  0
 18 19  1  0
 18 45  1  1
 19 46  1  0
 19 47  1  0
 19 48  1  0
 20 21  1  0
 20 49  1  0
 20 50  1  0
 21 22  2  0
 23 24  1  0
 23 25  2  0
 24 51  1  0
 24 52  1  0
 24 53  1  0
 25 54  1  0
M  END

