
     RDKit          3D

 59 62  0  0  0  0  0  0  0  0999 V2000
    1.0725   -0.0250   -0.3727 C   0  0  0  0  0  0  0  0  0  0  0  0
    2.5804   -0.1066   -0.3411 C   0  0  0  0  0  0  0  0  0  0  0  0
    3.3710    1.0402   -0.1850 C   0  0  0  0  0  0  0  0  0  0  0  0
    4.7666    0.9431   -0.1612 C   0  0  0  0  0  0  0  0  0  0  0  0
    5.3908   -0.2946   -0.2918 C   0  0  0  0  0  0  0  0  0  0  0  0
    4.6238   -1.4659   -0.4428 C   0  0  0  0  0  0  0  0  0  0  0  0
    5.3062   -2.7845   -0.5815 C   0  0  0  0  0  0  0  0  0  0  0  0
    4.5944   -4.0063   -0.4188 C   0  0  0  0  0  0  0  0  0  0  0  0
    5.2236   -5.2402   -0.5313 C   0  0  0  0  0  0  0  0  0  0  0  0
    4.3856   -6.4776   -0.3196 C   0  0  0  0  0  0  0  0  0  0  0  0
    3.1663   -6.4435   -0.4437 O   0  0  0  0  0  0  0  0  0  0  0  0
    5.0708   -7.6072    0.0073 N   0  0  0  0  0  0  0  0  0  0  0  0
    4.3750   -8.8437    0.3431 C   0  0  0  0  0  0  0  0  0  0  0  0
    4.0813   -8.9736    1.8208 C   0  0  0  0  0  0  0  0  0  0  0  0
    2.8191   -8.9906    2.3811 C   0  0  0  0  0  0  0  0  0  0  0  0
    1.5717   -8.8549    1.5408 C   0  0  0  0  0  0  0  0  0  0  0  0
    2.6836   -9.1386    3.8017 C   0  0  0  0  0  0  0  0  0  0  0  0
    3.7877   -9.2511    4.6056 C   0  0  0  0  0  0  0  0  0  0  0  0
    3.7438   -9.4109    6.0970 C   0  0  0  0  0  0  0  0  0  0  0  0
    5.0242   -9.2105    4.0212 N   0  0  0  0  0  0  0  0  0  0  0  0
    5.8629   -9.2689    4.5938 H   0  0  0  0  0  0  0  0  0  0  0  0
    5.2720   -9.0542    2.6540 C   0  0  0  0  0  0  0  0  0  0  0  0
    6.4299   -8.9847    2.2400 O   0  0  0  0  0  0  0  0  0  0  0  0
    6.6020   -5.2305   -0.8479 C   0  0  0  0  0  0  0  0  0  0  0  0
    7.6652   -6.1444   -1.1216 C   0  0  0  0  0  0  0  0  0  0  0  0
    8.7857   -5.4950   -1.3859 N   0  0  0  0  0  0  0  0  0  0  0  0
    8.5275   -4.1740   -1.3036 N   0  0  0  0  0  0  0  0  0  0  0  0
    9.6000   -3.2035   -1.5655 C   0  0  1  0  0  0  0  0  0  0  0  0
    9.2861   -2.3443   -2.7945 C   0  0  0  0  0  0  0  0  0  0  0  0
    9.9138   -2.3726   -0.3172 C   0  0  0  0  0  0  0  0  0  0  0  0
    7.2115   -3.9495   -0.9854 C   0  0  0  0  0  0  0  0  0  0  0  0
    6.6159   -2.7663   -0.8527 N   0  0  0  0  0  0  0  0  0  0  0  0
    3.2240   -1.3473   -0.4670 C   0  0  0  0  0  0  0  0  0  0  0  0
    0.7231    1.0177   -0.3499 H   0  0  0  0  0  0  0  0  0  0  0  0
    0.6252   -0.5469    0.4903 H   0  0  0  0  0  0  0  0  0  0  0  0
    0.6635   -0.4988   -1.2803 H   0  0  0  0  0  0  0  0  0  0  0  0
    2.8909    2.0178   -0.0845 H   0  0  0  0  0  0  0  0  0  0  0  0
    5.3712    1.8459   -0.0395 H   0  0  0  0  0  0  0  0  0  0  0  0
    6.4776   -0.3774   -0.2771 H   0  0  0  0  0  0  0  0  0  0  0  0
    3.5308   -4.0094   -0.1873 H   0  0  0  0  0  0  0  0  0  0  0  0
    6.0227   -7.5363    0.3552 H   0  0  0  0  0  0  0  0  0  0  0  0
    5.0250   -9.6788    0.0368 H   0  0  0  0  0  0  0  0  0  0  0  0
    3.4576   -8.8805   -0.2534 H   0  0  0  0  0  0  0  0  0  0  0  0
    1.6670   -8.0147    0.8358 H   0  0  0  0  0  0  0  0  0  0  0  0
    0.6854   -8.6912    2.1704 H   0  0  0  0  0  0  0  0  0  0  0  0
    1.3914   -9.7672    0.9469 H   0  0  0  0  0  0  0  0  0  0  0  0
    1.6914   -9.1599    4.2536 H   0  0  0  0  0  0  0  0  0  0  0  0
    2.7069   -9.4300    6.4568 H   0  0  0  0  0  0  0  0  0  0  0  0
    4.2676   -8.5806    6.6010 H   0  0  0  0  0  0  0  0  0  0  0  0
    4.2347  -10.3483    6.4104 H   0  0  0  0  0  0  0  0  0  0  0  0
    7.6538   -7.2328   -1.1527 H   0  0  0  0  0  0  0  0  0  0  0  0
   10.4632   -3.8469   -1.7907 H   0  0  0  0  0  0  0  0  0  0  0  0
    8.4021   -1.7139   -2.6196 H   0  0  0  0  0  0  0  0  0  0  0  0
    9.0957   -2.9775   -3.6747 H   0  0  0  0  0  0  0  0  0  0  0  0
   10.1422   -1.6899   -3.0222 H   0  0  0  0  0  0  0  0  0  0  0  0
    9.0579   -1.7405   -0.0386 H   0  0  0  0  0  0  0  0  0  0  0  0
   10.7795   -1.7195   -0.5094 H   0  0  0  0  0  0  0  0  0  0  0  0
   10.1590   -3.0250    0.5349 H   0  0  0  0  0  0  0  0  0  0  0  0
    2.6053   -2.2364   -0.6070 H   0  0  0  0  0  0  0  0  0  0  0  0
  1  2  1  0
  1 34  1  0
  1 35  1  0
  1 36  1  0
  2  3  2  0
  2 33  1  0
  3  4  1  0
  3 37  1  0
  4  5  2  0
  4 38  1  0
  5  6  1  0
  5 39  1  0
  6  7  1  0
  6 33  2  0
  7  8  2  0
  7 32  1  0
  8  9  1  0
  8 40  1  0
  9 10  1  0
  9 24  2  0
 10 11  2  0
 10 12  1  0
 12 13  1  0
 12 41  1  0
 13 14  1  0
 13 42  1  0
 13 43  1  0
 14 15  2  0
 14 22  1  0
 15 16  1  0
 15 17  1  0
 16 44  1  0
 16 45  1  0
 16 46  1  0
 17 18  2  0
 17 47  1  0
 18 19  1  0
 18 20  1  0
 19 48  1  0
 19 49  1  0
 19 50  1  0
 20 21  1  0
 20 22  1  0
 22 23  2  0
 24 25  1  0
 24 31  1  0
 25 26  2  0
 25 51  1  0
 26 27  1  0
 27 28  1  0
 27 31  1  0
 28 29  1  0
 28 30  1  0
 28 52  1  6
 29 53  1  0
 29 54  1  0
 29 55  1  0
 30 56  1  0
 30 57  1  0
 30 58  1  0
 31 32  2  0
 33 59  1  0
M  END

