
     RDKit          3D

 53 55  0  0  0  0  0  0  0  0999 V2000
   -2.1059   -6.7475   -3.9734 C   0  0  0  0  0  0  0  0  0  0  0  0
   -1.4323   -5.7839   -3.1957 O   0  0  0  0  0  0  0  0  0  0  0  0
   -0.1421   -5.4804   -3.4882 C   0  0  0  0  0  0  0  0  0  0  0  0
    0.5758   -6.0144   -4.5693 C   0  0  0  0  0  0  0  0  0  0  0  0
    1.9105   -5.6438   -4.7687 C   0  0  0  0  0  0  0  0  0  0  0  0
    2.5639   -4.7506   -3.9098 C   0  0  0  0  0  0  0  0  0  0  0  0
    4.0247   -4.3816   -4.1085 C   0  0  0  0  0  0  0  0  0  0  0  0
    4.2543   -3.4301   -5.2773 C   0  0  0  0  0  0  0  0  0  0  0  0
    4.1313   -2.2251   -5.1975 O   0  0  0  0  0  0  0  0  0  0  0  0
    4.6375   -3.9906   -6.4918 N   0  0  0  0  0  0  0  0  0  0  0  0
    4.7634   -5.3128   -6.6991 N   0  0  0  0  0  0  0  0  0  0  0  0
    5.1372   -5.7596   -7.8526 C   0  0  0  0  0  0  0  0  0  0  0  0
    5.4580   -4.8435   -9.0111 C   0  0  0  0  0  0  0  0  0  0  0  0
    5.2223   -7.2380   -8.0008 C   0  0  0  0  0  0  0  0  0  0  0  0
    5.9337   -7.8492   -9.0496 C   0  0  0  0  0  0  0  0  0  0  0  0
    5.9807   -9.2422   -9.1461 C   0  0  0  0  0  0  0  0  0  0  0  0
    5.3258  -10.0636   -8.2284 C   0  0  0  0  0  0  0  0  0  0  0  0
    4.6086   -9.4634   -7.1755 C   0  0  0  0  0  0  0  0  0  0  0  0
    3.8894  -10.1916   -6.2078 N   0  0  0  0  0  0  0  0  0  0  0  0
    3.7017  -11.5502   -6.1049 C   0  0  0  0  0  0  0  0  0  0  0  0
    4.2389  -12.3698   -6.8312 O   0  0  0  0  0  0  0  0  0  0  0  0
    2.7693  -11.9849   -4.9978 C   0  0  0  0  0  0  0  0  0  0  0  0
    2.8771  -13.3121   -4.5551 C   0  0  0  0  0  0  0  0  0  0  0  0
    2.0356  -13.7880   -3.5499 C   0  0  0  0  0  0  0  0  0  0  0  0
    1.0638  -12.9581   -2.9829 C   0  0  0  0  0  0  0  0  0  0  0  0
    0.9463  -11.6430   -3.4403 C   0  0  0  0  0  0  0  0  0  0  0  0
   -0.2815  -10.5996   -2.7557 Cl  0  0  0  0  0  0  0  0  0  0  0  0
    1.7879  -11.1499   -4.4402 C   0  0  0  0  0  0  0  0  0  0  0  0
    4.5735   -8.0669   -7.0711 C   0  0  0  0  0  0  0  0  0  0  0  0
    1.8222   -4.2091   -2.8456 C   0  0  0  0  0  0  0  0  0  0  0  0
    0.4938   -4.5651   -2.6326 C   0  0  0  0  0  0  0  0  0  0  0  0
   -3.1116   -6.8498   -3.5436 H   0  0  0  0  0  0  0  0  0  0  0  0
   -1.6000   -7.7295   -3.9383 H   0  0  0  0  0  0  0  0  0  0  0  0
   -2.2018   -6.4338   -5.0290 H   0  0  0  0  0  0  0  0  0  0  0  0
    0.1086   -6.7151   -5.2618 H   0  0  0  0  0  0  0  0  0  0  0  0
    2.4534   -6.0603   -5.6200 H   0  0  0  0  0  0  0  0  0  0  0  0
    4.6317   -5.2868   -4.2436 H   0  0  0  0  0  0  0  0  0  0  0  0
    4.3863   -3.8422   -3.2221 H   0  0  0  0  0  0  0  0  0  0  0  0
    4.7978   -3.3064   -7.2336 H   0  0  0  0  0  0  0  0  0  0  0  0
    4.6396   -4.1205   -9.1734 H   0  0  0  0  0  0  0  0  0  0  0  0
    5.5915   -5.3905   -9.9506 H   0  0  0  0  0  0  0  0  0  0  0  0
    6.3775   -4.2613   -8.8223 H   0  0  0  0  0  0  0  0  0  0  0  0
    6.4691   -7.2477   -9.7855 H   0  0  0  0  0  0  0  0  0  0  0  0
    6.5442   -9.7044   -9.9607 H   0  0  0  0  0  0  0  0  0  0  0  0
    5.3564  -11.1472   -8.3100 H   0  0  0  0  0  0  0  0  0  0  0  0
    3.4744   -9.6241   -5.4791 H   0  0  0  0  0  0  0  0  0  0  0  0
    3.6283  -13.9530   -5.0191 H   0  0  0  0  0  0  0  0  0  0  0  0
    2.1299  -14.8193   -3.2013 H   0  0  0  0  0  0  0  0  0  0  0  0
    0.3972  -13.3221   -2.1994 H   0  0  0  0  0  0  0  0  0  0  0  0
    1.6377  -10.1255   -4.7857 H   0  0  0  0  0  0  0  0  0  0  0  0
    4.0181   -7.5990   -6.2566 H   0  0  0  0  0  0  0  0  0  0  0  0
    2.2992   -3.4988   -2.1649 H   0  0  0  0  0  0  0  0  0  0  0  0
   -0.0776   -4.1506   -1.7996 H   0  0  0  0  0  0  0  0  0  0  0  0
  1  2  1  0
  1 32  1  0
  1 33  1  0
  1 34  1  0
  2  3  1  0
  3  4  2  0
  3 31  1  0
  4  5  1  0
  4 35  1  0
  5  6  2  0
  5 36  1  0
  6  7  1  0
  6 30  1  0
  7  8  1  0
  7 37  1  0
  7 38  1  0
  8  9  2  0
  8 10  1  0
 10 11  1  0
 10 39  1  0
 11 12  2  0
 12 13  1  0
 12 14  1  0
 13 40  1  0
 13 41  1  0
 13 42  1  0
 14 15  2  0
 14 29  1  0
 15 16  1  0
 15 43  1  0
 16 17  2  0
 16 44  1  0
 17 18  1  0
 17 45  1  0
 18 19  1  0
 18 29  2  0
 19 20  1  0
 19 46  1  0
 20 21  2  0
 20 22  1  0
 22 23  2  0
 22 28  1  0
 23 24  1  0
 23 47  1  0
 24 25  2  0
 24 48  1  0
 25 26  1  0
 25 49  1  0
 26 27  1  0
 26 28  2  0
 28 50  1  0
 29 51  1  0
 30 31  2  0
 30 52  1  0
 31 53  1  0
M  END

