
     RDKit          3D

 44 47  0  0  0  0  0  0  0  0999 V2000
   -0.4320    2.4934    4.2390 O   0  0  0  0  0  0  0  0  0  0  0  0
    0.2050    1.4853    4.4132 C   0  0  0  0  0  0  0  0  0  0  0  0
   -0.1713    0.5361    5.2629 O   0  0  0  0  0  0  0  0  0  0  0  0
    1.5460    1.2089    3.6822 C   0  0  2  0  0  0  0  0  0  0  0  0
    2.3139    1.0598    4.4604 H   0  0  0  0  0  0  0  0  0  0  0  0
    1.9159    2.3075    2.6818 C   0  0  0  0  0  0  0  0  0  0  0  0
    1.2924    1.8187    1.3675 C   0  0  0  0  0  0  0  0  0  0  0  0
    1.5219    0.3033    1.4057 C   0  0  0  0  0  0  0  0  0  0  0  0
    1.4848   -0.0115    2.8431 N   0  0  0  0  0  0  0  0  0  0  0  0
    1.5459   -1.2471    3.3905 C   0  0  0  0  0  0  0  0  0  0  0  0
    1.4893   -1.4123    4.6173 O   0  0  0  0  0  0  0  0  0  0  0  0
    1.6898   -2.4276    2.4471 C   0  0  0  0  0  0  0  0  0  0  0  0
    1.8299   -3.7488    3.2078 C   0  0  0  0  0  0  0  0  0  0  0  0
    1.9740   -4.8801    2.3036 N   0  0  0  0  0  0  0  0  0  0  0  0
    3.1805   -5.2143    1.6942 C   0  0  0  0  0  0  0  0  0  0  0  0
    4.2191   -4.6164    1.8555 O   0  0  0  0  0  0  0  0  0  0  0  0
    2.9420   -6.4209    0.7932 C   0  0  2  0  0  0  0  0  0  0  0  0
    3.0523   -6.0547   -0.7113 C   0  0  1  0  0  0  0  0  0  0  0  0
    2.9289   -7.3364   -1.5626 C   0  0  0  0  0  0  0  0  0  0  0  0
    1.4055   -7.6349   -1.4354 C   0  0  0  0  0  0  0  0  0  0  0  0
    0.9485   -6.4672   -0.5352 C   0  0  2  0  0  0  0  0  0  0  0  0
    1.8036   -5.3932   -0.9458 O   0  0  0  0  0  0  0  0  0  0  0  0
    1.4277   -6.7189    0.9199 C   0  0  2  0  0  0  0  0  0  0  0  0
    0.8983   -5.6650    1.8864 C   0  0  0  0  0  0  0  0  0  0  0  0
   -0.2466   -5.5046    2.2356 O   0  0  0  0  0  0  0  0  0  0  0  0
    0.4661   -0.2271    5.2339 H   0  0  0  0  0  0  0  0  0  0  0  0
    3.0120    2.3744    2.5910 H   0  0  0  0  0  0  0  0  0  0  0  0
    1.5251    3.2803    3.0047 H   0  0  0  0  0  0  0  0  0  0  0  0
    1.7335    2.2831    0.4738 H   0  0  0  0  0  0  0  0  0  0  0  0
    0.2135    2.0386    1.3687 H   0  0  0  0  0  0  0  0  0  0  0  0
    2.5042    0.0326    0.9778 H   0  0  0  0  0  0  0  0  0  0  0  0
    0.7520   -0.2597    0.8565 H   0  0  0  0  0  0  0  0  0  0  0  0
    2.5657   -2.2743    1.7954 H   0  0  0  0  0  0  0  0  0  0  0  0
    0.8081   -2.4670    1.7847 H   0  0  0  0  0  0  0  0  0  0  0  0
    0.9431   -3.9296    3.8279 H   0  0  0  0  0  0  0  0  0  0  0  0
    2.7121   -3.7157    3.8608 H   0  0  0  0  0  0  0  0  0  0  0  0
    3.6202   -7.2351    1.0855 H   0  0  0  0  0  0  0  0  0  0  0  0
    3.8890   -5.3883   -0.9554 H   0  0  0  0  0  0  0  0  0  0  0  0
    3.5684   -8.1513   -1.1929 H   0  0  0  0  0  0  0  0  0  0  0  0
    3.2139   -7.1283   -2.6037 H   0  0  0  0  0  0  0  0  0  0  0  0
    1.1861   -8.6182   -0.9943 H   0  0  0  0  0  0  0  0  0  0  0  0
    0.9008   -7.5810   -2.4104 H   0  0  0  0  0  0  0  0  0  0  0  0
   -0.1044   -6.1707   -0.6208 H   0  0  0  0  0  0  0  0  0  0  0  0
    1.1628   -7.7196    1.2895 H   0  0  0  0  0  0  0  0  0  0  0  0
  1  2  2  0
  2  3  1  0
  2  4  1  0
  3 26  1  0
  4  5  1  1
  4  6  1  0
  4  9  1  0
  6  7  1  0
  6 27  1  0
  6 28  1  0
  7  8  1  0
  7 29  1  0
  7 30  1  0
  8  9  1  0
  8 31  1  0
  8 32  1  0
  9 10  1  0
 10 11  2  0
 10 12  1  0
 12 13  1  0
 12 33  1  0
 12 34  1  0
 13 14  1  0
 13 35  1  0
 13 36  1  0
 14 15  1  0
 14 24  1  0
 15 16  2  0
 15 17  1  0
 17 18  1  0
 17 23  1  0
 17 37  1  1
 18 19  1  0
 18 22  1  0
 18 38  1  1
 19 20  1  0
 19 39  1  0
 19 40  1  0
 20 21  1  0
 20 41  1  0
 20 42  1  0
 21 22  1  0
 21 23  1  0
 21 43  1  1
 23 24  1  0
 23 44  1  1
 24 25  2  0
M  END

