
     RDKit          3D

 47 50  0  0  0  0  0  0  0  0999 V2000
    0.8571   -0.0992   -0.0135 C   0  0  0  0  0  0  0  0  0  0  0  0
    2.3892   -0.1218   -0.0478 C   0  0  1  0  0  0  0  0  0  0  0  0
    2.9280   -0.7531    1.2361 C   0  0  0  0  0  0  0  0  0  0  0  0
    2.9052   -0.7431   -1.3777 C   0  0  0  0  0  0  0  0  0  0  0  0
    3.2274    0.6014   -1.8581 N   0  0  0  0  0  0  0  0  0  0  0  0
    3.6061    1.0657   -3.0745 C   0  0  0  0  0  0  0  0  0  0  0  0
    3.8431    2.2296   -3.3392 O   0  0  0  0  0  0  0  0  0  0  0  0
    3.7509   -0.0186   -4.1742 C   0  0  0  0  0  0  0  0  0  0  0  0
    2.5033   -0.6965   -4.5203 C   0  0  0  0  0  0  0  0  0  0  0  0
    1.5064   -1.2314   -4.7726 N   0  0  0  0  0  0  0  0  0  0  0  0
    3.0401    1.2541   -0.5333 C   0  0  1  0  0  0  0  0  0  0  0  0
    2.1493    2.5071   -0.4696 C   0  0  0  0  0  0  0  0  0  0  0  0
    2.8594    3.8249   -0.8215 C   0  0  0  0  0  0  0  0  0  0  0  0
    4.2026    3.9659   -0.1007 C   0  0  0  0  0  0  0  0  0  0  0  0
    5.0155    2.7732   -0.3278 N   0  0  0  0  0  0  0  0  0  0  0  0
    6.2020    2.8294   -1.0156 C   0  0  0  0  0  0  0  0  0  0  0  0
    6.6747    4.0559   -1.2889 N   0  0  0  0  0  0  0  0  0  0  0  0
    7.8328    4.2099   -1.9344 C   0  0  0  0  0  0  0  0  0  0  0  0
    8.6458    3.2577   -2.3731 N   0  0  0  0  0  0  0  0  0  0  0  0
    8.1759    2.0337   -2.1154 C   0  0  0  0  0  0  0  0  0  0  0  0
    8.7983    0.8713   -2.4864 N   0  0  0  0  0  0  0  0  0  0  0  0
    9.6779    0.8440   -2.9865 H   0  0  0  0  0  0  0  0  0  0  0  0
    8.0310   -0.2043   -2.0979 C   0  0  0  0  0  0  0  0  0  0  0  0
    6.8995    0.2509   -1.4616 C   0  0  0  0  0  0  0  0  0  0  0  0
    6.9654    1.6950   -1.4499 C   0  0  0  0  0  0  0  0  0  0  0  0
    4.3894    1.5651    0.1614 C   0  0  0  0  0  0  0  0  0  0  0  0
    0.4745   -1.1236    0.1242 H   0  0  0  0  0  0  0  0  0  0  0  0
    0.4277    0.2906   -0.9476 H   0  0  0  0  0  0  0  0  0  0  0  0
    0.4774    0.5125    0.8192 H   0  0  0  0  0  0  0  0  0  0  0  0
    2.4943   -1.7579    1.3683 H   0  0  0  0  0  0  0  0  0  0  0  0
    2.6493   -0.1601    2.1222 H   0  0  0  0  0  0  0  0  0  0  0  0
    4.0214   -0.8684    1.2364 H   0  0  0  0  0  0  0  0  0  0  0  0
    2.1537   -1.2805   -1.9758 H   0  0  0  0  0  0  0  0  0  0  0  0
    3.7946   -1.3901   -1.2598 H   0  0  0  0  0  0  0  0  0  0  0  0
    4.4963   -0.7705   -3.8647 H   0  0  0  0  0  0  0  0  0  0  0  0
    4.1431    0.5022   -5.0589 H   0  0  0  0  0  0  0  0  0  0  0  0
    1.7809    2.5657    0.5711 H   0  0  0  0  0  0  0  0  0  0  0  0
    1.2639    2.3742   -1.1073 H   0  0  0  0  0  0  0  0  0  0  0  0
    2.2069    4.6725   -0.5520 H   0  0  0  0  0  0  0  0  0  0  0  0
    3.0405    3.8640   -1.9037 H   0  0  0  0  0  0  0  0  0  0  0  0
    4.0478    4.0812    0.9906 H   0  0  0  0  0  0  0  0  0  0  0  0
    4.7648    4.8343   -0.4581 H   0  0  0  0  0  0  0  0  0  0  0  0
    8.1437    5.2462   -2.1171 H   0  0  0  0  0  0  0  0  0  0  0  0
    8.3505   -1.2245   -2.2995 H   0  0  0  0  0  0  0  0  0  0  0  0
    6.1321   -0.4036   -1.0610 H   0  0  0  0  0  0  0  0  0  0  0  0
    4.1768    1.6993    1.2392 H   0  0  0  0  0  0  0  0  0  0  0  0
    5.0786    0.7236    0.0829 H   0  0  0  0  0  0  0  0  0  0  0  0
  2  1  1  1
  1 27  1  0
  1 28  1  0
  1 29  1  0
  2  3  1  0
  2  4  1  0
  2 11  1  0
  3 30  1  0
  3 31  1  0
  3 32  1  0
  4  5  1  0
  4 33  1  0
  4 34  1  0
  5  6  1  0
 11  5  1  6
  6  7  2  0
  6  8  1  0
  8  9  1  0
  8 35  1  0
  8 36  1  0
  9 10  3  0
 11 12  1  0
 11 26  1  0
 12 13  1  0
 12 37  1  0
 12 38  1  0
 13 14  1  0
 13 39  1  0
 13 40  1  0
 14 15  1  0
 14 41  1  0
 14 42  1  0
 15 16  1  0
 15 26  1  0
 16 17  2  0
 16 25  1  0
 17 18  1  0
 18 19  2  0
 18 43  1  0
 19 20  1  0
 20 21  1  0
 20 25  2  0
 21 22  1  0
 21 23  1  0
 23 24  2  0
 23 44  1  0
 24 25  1  0
 24 45  1  0
 26 46  1  0
 26 47  1  0
M  END

