
     RDKit          3D

 28 29  0  0  0  0  0  0  0  0999 V2000
    5.8539    0.3019   -1.1445 O   0  0  0  0  0  0  0  0  0  0  0  0
    5.0258    0.1629   -0.2857 C   0  0  0  0  0  0  0  0  0  0  0  0
    4.7618   -1.0585    0.2278 O   0  0  0  0  0  0  0  0  0  0  0  0
    4.2525    1.3175    0.2560 C   0  0  0  0  0  0  0  0  0  0  0  0
    4.5186    2.6344   -0.0442 C   0  0  0  0  0  0  0  0  0  0  0  0
    3.6237    3.5237    0.6120 C   0  0  0  0  0  0  0  0  0  0  0  0
    3.7007    5.3073    0.4813 S   0  0  1  0  0  0  0  0  0  0  0  0
    2.9734    5.8443    1.6325 O   0  0  0  0  0  0  0  0  0  0  0  0
    5.0976    5.6296    0.1978 O   0  0  0  0  0  0  0  0  0  0  0  0
    2.7429    5.7027   -0.8419 N   0  0  0  0  0  0  0  0  0  0  0  0
    3.2068    5.8970   -2.2005 C   0  0  1  0  0  0  0  0  0  0  0  0
    3.0634    4.6525   -3.0620 C   0  0  0  0  0  0  0  0  0  0  0  0
    1.7361    4.1868   -3.1151 O   0  0  0  0  0  0  0  0  0  0  0  0
    2.9031    7.2426   -2.8186 C   0  0  0  0  0  0  0  0  0  0  0  0
    4.3224    6.8748   -2.4912 C   0  0  0  0  0  0  0  0  0  0  0  0
    2.6994    2.8934    1.4125 C   0  0  0  0  0  0  0  0  0  0  0  0
    2.8960    1.1871    1.3534 S   0  0  0  0  0  0  0  0  0  0  0  0
    4.1404   -1.0218    0.9691 H   0  0  0  0  0  0  0  0  0  0  0  0
    5.3396    2.9367   -0.6935 H   0  0  0  0  0  0  0  0  0  0  0  0
    1.9346    6.2333   -0.5260 H   0  0  0  0  0  0  0  0  0  0  0  0
    3.7562    3.8692   -2.6903 H   0  0  0  0  0  0  0  0  0  0  0  0
    3.3694    4.8828   -4.0942 H   0  0  0  0  0  0  0  0  0  0  0  0
    1.4561    4.0407   -2.2004 H   0  0  0  0  0  0  0  0  0  0  0  0
    2.4116    7.9915   -2.1901 H   0  0  0  0  0  0  0  0  0  0  0  0
    2.5744    7.2439   -3.8615 H   0  0  0  0  0  0  0  0  0  0  0  0
    4.8032    7.3480   -1.6345 H   0  0  0  0  0  0  0  0  0  0  0  0
    5.0034    6.6237   -3.3096 H   0  0  0  0  0  0  0  0  0  0  0  0
    1.9335    3.3587    2.0315 H   0  0  0  0  0  0  0  0  0  0  0  0
  1  2  2  0
  2  3  1  0
  2  4  1  0
  3 18  1  0
  4  5  2  0
  4 17  1  0
  5  6  1  0
  5 19  1  0
  6  7  1  0
  6 16  2  0
  7  8  2  0
  7  9  2  0
  7 10  1  6
 11 10  1  1
 10 20  1  0
 11 12  1  0
 11 14  1  0
 11 15  1  0
 12 13  1  0
 12 21  1  0
 12 22  1  0
 13 23  1  0
 14 15  1  0
 14 24  1  0
 14 25  1  0
 15 26  1  0
 15 27  1  0
 16 17  1  0
 16 28  1  0
M  END

