
     RDKit          3D

 45 47  0  0  0  0  0  0  0  0999 V2000
    0.8466    0.5877   -0.5276 C   0  0  0  0  0  0  0  0  0  0  0  0
    2.0263    0.7047    0.4233 C   0  0  0  0  0  0  0  0  0  0  0  0
    2.8867    1.8020    0.0712 O   0  0  0  0  0  0  0  0  0  0  0  0
    3.8537    1.5741   -0.8434 C   0  0  0  0  0  0  0  0  0  0  0  0
    4.0334    0.4984   -1.3751 O   0  0  0  0  0  0  0  0  0  0  0  0
    4.6510    2.7875   -1.0921 C   0  0  0  0  0  0  0  0  0  0  0  0
    4.2599    4.2761   -0.2416 S   0  0  0  0  0  0  0  0  0  0  0  0
    5.5145    5.1163   -1.1108 C   0  0  0  0  0  0  0  0  0  0  0  0
    5.6851    6.4350   -1.0121 N   0  0  0  0  0  0  0  0  0  0  0  0
    6.6136    6.9417   -1.8208 C   0  0  0  0  0  0  0  0  0  0  0  0
    6.7778    8.4359   -1.8611 C   0  0  0  0  0  0  0  0  0  0  0  0
    7.4448    6.2192   -2.5929 N   0  0  0  0  0  0  0  0  0  0  0  0
    7.3449    4.8910   -2.6291 C   0  0  0  0  0  0  0  0  0  0  0  0
    8.3242    4.1981   -3.3273 N   0  0  0  0  0  0  0  0  0  0  0  0
    9.0488    3.1180   -2.6363 C   0  0  0  0  0  0  0  0  0  0  0  0
    9.7638    2.2156   -3.6513 C   0  0  0  0  0  0  0  0  0  0  0  0
   10.6342    2.9437   -4.5632 N   0  0  0  0  0  0  0  0  0  0  0  0
   11.9399    3.2915   -4.0333 C   0  0  0  0  0  0  0  0  0  0  0  0
    9.9049    4.0362   -5.1944 C   0  0  0  0  0  0  0  0  0  0  0  0
    9.2070    4.9784   -4.2030 C   0  0  0  0  0  0  0  0  0  0  0  0
    6.2539    4.2459   -1.9539 C   0  0  0  0  0  0  0  0  0  0  0  0
    5.6981    2.9116   -1.9894 C   0  0  0  0  0  0  0  0  0  0  0  0
    6.1000    1.8285   -2.9547 C   0  0  0  0  0  0  0  0  0  0  0  0
    0.1663   -0.2082   -0.1840 H   0  0  0  0  0  0  0  0  0  0  0  0
    1.1867    0.3322   -1.5421 H   0  0  0  0  0  0  0  0  0  0  0  0
    0.2801    1.5310   -0.5700 H   0  0  0  0  0  0  0  0  0  0  0  0
    2.6179   -0.2227    0.4321 H   0  0  0  0  0  0  0  0  0  0  0  0
    1.6934    0.9293    1.4471 H   0  0  0  0  0  0  0  0  0  0  0  0
    6.1109    8.9137   -1.1330 H   0  0  0  0  0  0  0  0  0  0  0  0
    6.5448    8.8123   -2.8711 H   0  0  0  0  0  0  0  0  0  0  0  0
    7.8229    8.7130   -1.6520 H   0  0  0  0  0  0  0  0  0  0  0  0
    8.3600    2.5326   -2.0180 H   0  0  0  0  0  0  0  0  0  0  0  0
    9.7918    3.5686   -1.9459 H   0  0  0  0  0  0  0  0  0  0  0  0
    9.0008    1.6830   -4.2468 H   0  0  0  0  0  0  0  0  0  0  0  0
   10.3504    1.4524   -3.1149 H   0  0  0  0  0  0  0  0  0  0  0  0
   12.4527    2.3791   -3.6878 H   0  0  0  0  0  0  0  0  0  0  0  0
   11.9389    4.0111   -3.1850 H   0  0  0  0  0  0  0  0  0  0  0  0
   12.5559    3.7325   -4.8337 H   0  0  0  0  0  0  0  0  0  0  0  0
    9.1360    3.6020   -5.8593 H   0  0  0  0  0  0  0  0  0  0  0  0
   10.5945    4.6163   -5.8284 H   0  0  0  0  0  0  0  0  0  0  0  0
    8.6048    5.7253   -4.7360 H   0  0  0  0  0  0  0  0  0  0  0  0
    9.9467    5.5452   -3.6044 H   0  0  0  0  0  0  0  0  0  0  0  0
    6.6710    2.2518   -3.7905 H   0  0  0  0  0  0  0  0  0  0  0  0
    5.2119    1.3108   -3.3386 H   0  0  0  0  0  0  0  0  0  0  0  0
    6.7100    1.0488   -2.4698 H   0  0  0  0  0  0  0  0  0  0  0  0
  1  2  1  0
  1 24  1  0
  1 25  1  0
  1 26  1  0
  2  3  1  0
  2 27  1  0
  2 28  1  0
  3  4  1  0
  4  5  2  0
  4  6  1  0
  6  7  1  0
  6 22  2  0
  7  8  1  0
  8  9  2  0
  8 21  1  0
  9 10  1  0
 10 11  1  0
 10 12  2  0
 11 29  1  0
 11 30  1  0
 11 31  1  0
 12 13  1  0
 13 14  1  0
 13 21  2  0
 14 15  1  0
 14 20  1  0
 15 16  1  0
 15 32  1  0
 15 33  1  0
 16 17  1  0
 16 34  1  0
 16 35  1  0
 17 18  1  0
 17 19  1  0
 18 36  1  0
 18 37  1  0
 18 38  1  0
 19 20  1  0
 19 39  1  0
 19 40  1  0
 20 41  1  0
 20 42  1  0
 21 22  1  0
 22 23  1  0
 23 43  1  0
 23 44  1  0
 23 45  1  0
M  END

