
     RDKit          3D

 29 30  0  0  0  0  0  0  0  0999 V2000
    3.6353    0.7041    0.6147 O   0  0  0  0  0  0  0  0  0  0  0  0
    2.4467   -0.1297    0.4547 S   0  0  1  0  0  0  0  0  0  0  0  0
    1.4187   -0.1654    1.4871 O   0  0  0  0  0  0  0  0  0  0  0  0
    1.7359    0.2822   -0.9767 O   0  0  0  0  0  0  0  0  0  0  0  0
    2.9267   -1.7842    0.0174 C   0  0  0  0  0  0  0  0  0  0  0  0
    4.1773   -1.9947   -0.5784 C   0  0  0  0  0  0  0  0  0  0  0  0
    4.5523   -3.2886   -0.9205 C   0  0  0  0  0  0  0  0  0  0  0  0
    3.6888   -4.3690   -0.6711 C   0  0  0  0  0  0  0  0  0  0  0  0
    4.0237   -5.6367   -0.9928 O   0  0  0  0  0  0  0  0  0  0  0  0
    2.4286   -4.1530   -0.0610 C   0  0  0  0  0  0  0  0  0  0  0  0
    1.5280   -5.2832    0.2101 C   0  0  0  0  0  0  0  0  0  0  0  0
    0.3807   -5.1144    0.7485 N   0  0  0  0  0  0  0  0  0  0  0  0
   -0.4371   -6.2037    1.0562 C   0  0  0  0  0  0  0  0  0  0  0  0
    0.0375   -7.3924    1.6417 C   0  0  0  0  0  0  0  0  0  0  0  0
   -0.8755   -8.4088    1.9336 C   0  0  0  0  0  0  0  0  0  0  0  0
   -2.1850   -8.3282    1.6866 N   0  0  0  0  0  0  0  0  0  0  0  0
   -2.6348   -7.1938    1.1390 C   0  0  0  0  0  0  0  0  0  0  0  0
   -1.8201   -6.1075    0.8209 C   0  0  0  0  0  0  0  0  0  0  0  0
    2.0626   -2.8421    0.2805 C   0  0  0  0  0  0  0  0  0  0  0  0
    1.5236    1.2321   -0.9298 H   0  0  0  0  0  0  0  0  0  0  0  0
    4.8449   -1.1502   -0.7568 H   0  0  0  0  0  0  0  0  0  0  0  0
    5.5264   -3.4729   -1.3834 H   0  0  0  0  0  0  0  0  0  0  0  0
    4.9015   -5.6590   -1.3974 H   0  0  0  0  0  0  0  0  0  0  0  0
    1.8944   -6.2794   -0.0911 H   0  0  0  0  0  0  0  0  0  0  0  0
    1.0938   -7.5086    1.8939 H   0  0  0  0  0  0  0  0  0  0  0  0
   -0.5209   -9.3380    2.3965 H   0  0  0  0  0  0  0  0  0  0  0  0
   -3.7132   -7.1382    0.9475 H   0  0  0  0  0  0  0  0  0  0  0  0
   -2.2329   -5.1937    0.3893 H   0  0  0  0  0  0  0  0  0  0  0  0
    1.0956   -2.6764    0.7586 H   0  0  0  0  0  0  0  0  0  0  0  0
  1  2  2  0
  2  3  2  0
  2  4  1  6
  2  5  1  0
  4 20  1  0
  5  6  2  0
  5 19  1  0
  6  7  1  0
  6 21  1  0
  7  8  2  0
  7 22  1  0
  8  9  1  0
  8 10  1  0
  9 23  1  0
 10 11  1  0
 10 19  2  0
 11 12  2  0
 11 24  1  0
 12 13  1  0
 13 14  2  0
 13 18  1  0
 14 15  1  0
 14 25  1  0
 15 16  2  0
 15 26  1  0
 16 17  1  0
 17 18  2  0
 17 27  1  0
 18 28  1  0
 19 29  1  0
M  END

