
     RDKit          3D

 44 48  0  0  0  0  0  0  0  0999 V2000
    1.1241    0.0605   -0.4038 N   0  0  0  0  0  0  0  0  0  0  0  0
    2.4135    0.0843    0.0396 C   0  0  0  0  0  0  0  0  0  0  0  0
    3.1253   -1.0472    0.1990 N   0  0  0  0  0  0  0  0  0  0  0  0
    4.3195   -0.6644    0.6595 C   0  0  0  0  0  0  0  0  0  0  0  0
    5.4451   -1.4393    1.0020 C   0  0  0  0  0  0  0  0  0  0  0  0
    6.5948   -0.8239    1.4627 C   0  0  0  0  0  0  0  0  0  0  0  0
    6.6122    0.5812    1.5789 C   0  0  0  0  0  0  0  0  0  0  0  0
    7.7258    1.1872    2.0230 F   0  0  0  0  0  0  0  0  0  0  0  0
    5.5273    1.3578    1.2509 C   0  0  0  0  0  0  0  0  0  0  0  0
    4.3948    0.7326    0.7983 N   0  0  0  0  0  0  0  0  0  0  0  0
    3.1571    1.2397    0.3997 C   0  0  0  0  0  0  0  0  0  0  0  0
    2.7818    2.6369    0.3556 C   0  0  0  0  0  0  0  0  0  0  0  0
    3.6881    3.5642    0.6760 N   0  0  0  0  0  0  0  0  0  0  0  0
    3.3392    4.8652    0.6082 C   0  0  0  0  0  0  0  0  0  0  0  0
    2.0659    5.2305    0.2283 C   0  0  0  0  0  0  0  0  0  0  0  0
    1.1493    4.1794   -0.0566 C   0  0  0  0  0  0  0  0  0  0  0  0
    1.4875    2.9075   -0.0190 N   0  0  0  0  0  0  0  0  0  0  0  0
   -0.0763    4.7438   -0.3900 N   0  0  0  0  0  0  0  0  0  0  0  0
   -1.4173    4.1427   -0.2588 C   0  0  1  0  0  0  0  0  0  0  0  0
   -2.4317    4.8800   -1.1601 C   0  0  0  0  0  0  0  0  0  0  0  0
   -2.1823    4.5712   -2.6380 C   0  0  0  0  0  0  0  0  0  0  0  0
   -2.2394    3.1837   -2.8943 O   0  0  0  0  0  0  0  0  0  0  0  0
   -1.2987    2.4439   -2.1379 C   0  0  0  0  0  0  0  0  0  0  0  0
   -1.4849    2.6541   -0.6340 C   0  0  0  0  0  0  0  0  0  0  0  0
    0.0053    6.1900   -0.1309 C   0  0  0  0  0  0  0  0  0  0  0  0
    1.4321    6.4478    0.0118 N   0  0  0  0  0  0  0  0  0  0  0  0
    0.8323   -0.7916   -0.8667 H   0  0  0  0  0  0  0  0  0  0  0  0
    0.7631    0.9471   -0.7353 H   0  0  0  0  0  0  0  0  0  0  0  0
    5.3715   -2.5212    0.8901 H   0  0  0  0  0  0  0  0  0  0  0  0
    7.4850   -1.3927    1.7366 H   0  0  0  0  0  0  0  0  0  0  0  0
    5.4939    2.4431    1.3145 H   0  0  0  0  0  0  0  0  0  0  0  0
    4.1026    5.6052    0.8732 H   0  0  0  0  0  0  0  0  0  0  0  0
   -1.7343    4.2569    0.7989 H   0  0  0  0  0  0  0  0  0  0  0  0
   -2.4314    5.9677   -0.9894 H   0  0  0  0  0  0  0  0  0  0  0  0
   -3.4380    4.5233   -0.8870 H   0  0  0  0  0  0  0  0  0  0  0  0
   -1.1986    4.9814   -2.9482 H   0  0  0  0  0  0  0  0  0  0  0  0
   -2.9535    5.0398   -3.2686 H   0  0  0  0  0  0  0  0  0  0  0  0
   -0.2654    2.7167   -2.4344 H   0  0  0  0  0  0  0  0  0  0  0  0
   -1.4531    1.3861   -2.4021 H   0  0  0  0  0  0  0  0  0  0  0  0
   -0.7605    2.0654   -0.0604 H   0  0  0  0  0  0  0  0  0  0  0  0
   -2.4913    2.3019   -0.3532 H   0  0  0  0  0  0  0  0  0  0  0  0
   -0.5756    6.4472    0.7884 H   0  0  0  0  0  0  0  0  0  0  0  0
   -0.4211    6.7749   -0.9639 H   0  0  0  0  0  0  0  0  0  0  0  0
    1.7053    7.2532    0.5633 H   0  0  0  0  0  0  0  0  0  0  0  0
  1  2  1  0
  1 27  1  0
  1 28  1  0
  2  3  1  0
  2 11  2  0
  3  4  2  0
  4  5  1  0
  4 10  1  0
  5  6  2  0
  5 29  1  0
  6  7  1  0
  6 30  1  0
  7  8  1  0
  7  9  2  0
  9 10  1  0
  9 31  1  0
 10 11  1  0
 11 12  1  0
 12 13  2  0
 12 17  1  0
 13 14  1  0
 14 15  2  0
 14 32  1  0
 15 16  1  0
 15 26  1  0
 16 17  2  0
 16 18  1  0
 18 19  1  0
 18 25  1  0
 19 20  1  0
 19 24  1  0
 19 33  1  1
 20 21  1  0
 20 34  1  0
 20 35  1  0
 21 22  1  0
 21 36  1  0
 21 37  1  0
 22 23  1  0
 23 24  1  0
 23 38  1  0
 23 39  1  0
 24 40  1  0
 24 41  1  0
 25 26  1  0
 25 42  1  0
 25 43  1  0
 26 44  1  0
M  END

