
     RDKit          3D

 41 41  0  0  0  0  0  0  0  0999 V2000
    0.5644   -4.2833    3.2388 C   0  0  0  0  0  0  0  0  0  0  0  0
    1.9739   -4.7717    2.8745 C   0  0  1  0  0  0  0  0  0  0  0  0
    1.9920   -5.7910    1.8191 N   0  0  0  0  0  0  0  0  0  0  0  0
    2.8811   -3.6003    2.4711 C   0  0  0  0  0  0  0  0  0  0  0  0
    4.3342   -4.0157    2.2494 C   0  0  0  0  0  0  0  0  0  0  0  0
    5.1921   -2.8793    1.6958 C   0  0  0  0  0  0  0  0  0  0  0  0
    4.7032   -1.7705    1.4974 O   0  0  0  0  0  0  0  0  0  0  0  0
    6.5188   -3.1266    1.4270 N   0  0  0  0  0  0  0  0  0  0  0  0
    7.2843   -2.0372    0.8054 C   0  0  0  0  0  0  0  0  0  0  0  0
    7.9779   -1.0865    1.7703 C   0  0  0  0  0  0  0  0  0  0  0  0
    7.2425   -0.1804    2.5552 C   0  0  0  0  0  0  0  0  0  0  0  0
    7.9314    0.6807    3.4086 C   0  0  0  0  0  0  0  0  0  0  0  0
    9.3271    0.6193    3.4508 C   0  0  0  0  0  0  0  0  0  0  0  0
    9.9685   -0.3096    2.6283 C   0  0  0  0  0  0  0  0  0  0  0  0
    9.3162   -1.1408    1.8109 N   0  0  0  0  0  0  0  0  0  0  0  0
    7.1630   -4.4450    1.5807 C   0  0  1  0  0  0  0  0  0  0  0  0
    7.4177   -5.1214    0.2248 C   0  0  0  0  0  0  0  0  0  0  0  0
    8.4340   -4.3696    2.4359 C   0  0  0  0  0  0  0  0  0  0  0  0
   -0.0828   -5.1266    3.5318 H   0  0  0  0  0  0  0  0  0  0  0  0
    0.0926   -3.7791    2.3774 H   0  0  0  0  0  0  0  0  0  0  0  0
    0.5828   -3.5658    4.0759 H   0  0  0  0  0  0  0  0  0  0  0  0
    2.4113   -5.2475    3.7730 H   0  0  0  0  0  0  0  0  0  0  0  0
    1.5222   -5.4296    0.9855 H   0  0  0  0  0  0  0  0  0  0  0  0
    1.4593   -6.6122    2.1077 H   0  0  0  0  0  0  0  0  0  0  0  0
    2.8299   -2.8091    3.2357 H   0  0  0  0  0  0  0  0  0  0  0  0
    2.4909   -3.1375    1.5480 H   0  0  0  0  0  0  0  0  0  0  0  0
    4.3539   -4.8835    1.5708 H   0  0  0  0  0  0  0  0  0  0  0  0
    4.7721   -4.3695    3.2000 H   0  0  0  0  0  0  0  0  0  0  0  0
    6.5833   -1.4635    0.1824 H   0  0  0  0  0  0  0  0  0  0  0  0
    8.0593   -2.4677    0.1592 H   0  0  0  0  0  0  0  0  0  0  0  0
    6.1542   -0.1698    2.4755 H   0  0  0  0  0  0  0  0  0  0  0  0
    7.3859    1.3967    4.0294 H   0  0  0  0  0  0  0  0  0  0  0  0
    9.9079    1.2766    4.1022 H   0  0  0  0  0  0  0  0  0  0  0  0
   11.0626   -0.3862    2.6293 H   0  0  0  0  0  0  0  0  0  0  0  0
    6.4474   -5.0738    2.1229 H   0  0  0  0  0  0  0  0  0  0  0  0
    8.1637   -4.5754   -0.3742 H   0  0  0  0  0  0  0  0  0  0  0  0
    6.4887   -5.1891   -0.3625 H   0  0  0  0  0  0  0  0  0  0  0  0
    7.8024   -6.1425    0.3757 H   0  0  0  0  0  0  0  0  0  0  0  0
    9.2094   -3.7439    1.9688 H   0  0  0  0  0  0  0  0  0  0  0  0
    8.8471   -5.3805    2.5813 H   0  0  0  0  0  0  0  0  0  0  0  0
    8.2139   -3.9427    3.4268 H   0  0  0  0  0  0  0  0  0  0  0  0
  1  2  1  0
  1 19  1  0
  1 20  1  0
  1 21  1  0
  2  3  1  0
  2  4  1  0
  2 22  1  1
  3 23  1  0
  3 24  1  0
  4  5  1  0
  4 25  1  0
  4 26  1  0
  5  6  1  0
  5 27  1  0
  5 28  1  0
  6  7  2  0
  6  8  1  0
  8  9  1  0
  8 16  1  0
  9 10  1  0
  9 29  1  0
  9 30  1  0
 10 11  2  0
 10 15  1  0
 11 12  1  0
 11 31  1  0
 12 13  2  0
 12 32  1  0
 13 14  1  0
 13 33  1  0
 14 15  2  0
 14 34  1  0
 16 17  1  0
 16 18  1  0
 16 35  1  1
 17 36  1  0
 17 37  1  0
 17 38  1  0
 18 39  1  0
 18 40  1  0
 18 41  1  0
M  END

