
     RDKit          3D

126138  0  0  0  0  0  0  0  0999 V2000
    5.6682   -1.8718    1.1313 C   0  0  0  0  0  0  0  0  0  0  0  0
    4.6497   -0.9913    0.4382 C   0  0  0  0  0  0  0  0  0  0  0  0
    4.9348    0.3760    0.3086 C   0  0  0  0  0  0  0  0  0  0  0  0
    4.0699    1.2318   -0.3709 C   0  0  0  0  0  0  0  0  0  0  0  0
    2.9116    0.7172   -0.9475 C   0  0  0  0  0  0  0  0  0  0  0  0
    2.5830   -0.6424   -0.8330 C   0  0  0  0  0  0  0  0  0  0  0  0
    1.3354   -1.1417   -1.5202 C   0  0  0  0  0  0  0  0  0  0  0  0
    3.4417   -1.5042   -0.1070 C   0  0  0  0  0  0  0  0  0  0  0  0
    3.1506   -2.9744    0.0358 C   0  0  0  0  0  0  0  0  0  0  0  0
    3.9680   -3.8612   -0.6763 C   0  0  0  0  0  0  0  0  0  0  0  0
    3.8762   -5.2629   -0.5911 C   0  0  0  0  0  0  0  0  0  0  0  0
    4.7697   -6.1231   -1.3745 C   0  0  0  0  0  0  0  0  0  0  0  0
    5.8001   -5.5570   -2.3126 C   0  0  0  0  0  0  0  0  0  0  0  0
    4.5837   -7.4533   -1.1739 C   0  0  0  0  0  0  0  0  0  0  0  0
    5.0102   -8.8507   -1.5182 C   0  0  0  0  0  0  0  0  0  0  0  0
    5.8811   -9.6611   -2.2777 C   0  0  0  0  0  0  0  0  0  0  0  0
    5.7542  -11.0306   -2.1245 C   0  0  0  0  0  0  0  0  0  0  0  0
    4.7859  -11.6139   -1.2374 C   0  0  0  0  0  0  0  0  0  0  0  0
    4.7187  -12.9454   -1.1381 N   0  0  0  0  0  0  0  0  0  0  0  0
    3.8073  -13.4644   -0.3036 C   0  0  0  0  0  0  0  0  0  0  0  0
    2.9057  -12.6156    0.4823 C   0  0  0  0  0  0  0  0  0  0  0  0
    1.9376  -13.1989    1.3697 C   0  0  0  0  0  0  0  0  0  0  0  0
    1.8111  -14.5684    1.5231 C   0  0  0  0  0  0  0  0  0  0  0  0
    2.6819  -15.3788    0.7637 C   0  0  0  0  0  0  0  0  0  0  0  0
    3.1087  -16.7762    0.4197 C   0  0  0  0  0  0  0  0  0  0  0  0
    2.9229  -18.1064    0.6205 C   0  0  0  0  0  0  0  0  0  0  0  0
    1.8932  -18.6725    1.5592 C   0  0  0  0  0  0  0  0  0  0  0  0
    3.8167  -18.9666   -0.1627 C   0  0  0  0  0  0  0  0  0  0  0  0
    3.7258  -20.3683   -0.0764 C   0  0  0  0  0  0  0  0  0  0  0  0
    4.5440  -21.2550   -0.7876 C   0  0  0  0  0  0  0  0  0  0  0  0
    4.2550  -22.7255   -0.6434 C   0  0  0  0  0  0  0  0  0  0  0  0
    3.0466  -23.2400   -1.1863 C   0  0  0  0  0  0  0  0  0  0  0  0
    2.0258  -22.3601   -1.8767 C   0  0  0  0  0  0  0  0  0  0  0  0
    2.7637  -24.6077   -1.0561 C   0  0  0  0  0  0  0  0  0  0  0  0
    3.6310  -25.4622   -0.3779 C   0  0  0  0  0  0  0  0  0  0  0  0
    4.7894  -24.9457    0.1969 C   0  0  0  0  0  0  0  0  0  0  0  0
    5.1159  -23.5856    0.0815 C   0  0  0  0  0  0  0  0  0  0  0  0
    6.3637  -23.0844    0.7671 C   0  0  0  0  0  0  0  0  0  0  0  0
    5.5565  -20.7084   -1.6273 C   0  0  0  0  0  0  0  0  0  0  0  0
    6.5819  -21.5222   -2.3709 C   0  0  0  0  0  0  0  0  0  0  0  0
    6.2423  -22.2754   -3.5217 C   0  0  0  0  0  0  0  0  0  0  0  0
    4.8413  -22.2988   -4.0829 C   0  0  0  0  0  0  0  0  0  0  0  0
    7.2421  -23.0022   -4.1860 C   0  0  0  0  0  0  0  0  0  0  0  0
    8.5619  -22.9882   -3.7416 C   0  0  0  0  0  0  0  0  0  0  0  0
    8.9030  -22.2148   -2.6338 C   0  0  0  0  0  0  0  0  0  0  0  0
    7.9368  -21.4648   -1.9467 C   0  0  0  0  0  0  0  0  0  0  0  0
    8.3927  -20.5934   -0.7954 C   0  0  0  0  0  0  0  0  0  0  0  0
    5.6394  -19.3150   -1.7411 C   0  0  0  0  0  0  0  0  0  0  0  0
    4.8063  -18.4146   -1.0515 C   0  0  0  0  0  0  0  0  0  0  0  0
    4.9567  -16.9671   -1.2300 C   0  0  0  0  0  0  0  0  0  0  0  0
    5.9743  -16.3651   -2.1590 C   0  0  0  0  0  0  0  0  0  0  0  0
    4.0994  -16.2237   -0.4849 C   0  0  0  0  0  0  0  0  0  0  0  0
    3.6392  -14.8534   -0.1118 C   0  0  0  0  0  0  0  0  0  0  0  0
    2.9730  -11.2841    0.3830 N   0  0  0  0  0  0  0  0  0  0  0  0
    3.8843  -10.7651   -0.4515 C   0  0  0  0  0  0  0  0  0  0  0  0
    4.0527   -9.3761   -0.6430 C   0  0  0  0  0  0  0  0  0  0  0  0
    3.5929   -8.0058   -0.2695 C   0  0  0  0  0  0  0  0  0  0  0  0
    2.7355   -7.2624    0.4755 C   0  0  0  0  0  0  0  0  0  0  0  0
    1.7174   -7.8642    1.4040 C   0  0  0  0  0  0  0  0  0  0  0  0
    2.8862   -5.8149    0.2973 C   0  0  0  0  0  0  0  0  0  0  0  0
    2.0529   -4.9144    0.9867 C   0  0  0  0  0  0  0  0  0  0  0  0
    2.1373   -3.5210    0.8747 C   0  0  0  0  0  0  0  0  0  0  0  0
    1.1117   -2.7067    1.6174 C   0  0  0  0  0  0  0  0  0  0  0  0
    1.4509   -1.9537    2.7683 C   0  0  0  0  0  0  0  0  0  0  0  0
    2.8513   -1.9316    3.3311 C   0  0  0  0  0  0  0  0  0  0  0  0
    0.4511   -1.2256    3.4314 C   0  0  0  0  0  0  0  0  0  0  0  0
   -0.8682   -1.2384    2.9858 C   0  0  0  0  0  0  0  0  0  0  0  0
   -1.2091   -2.0122    1.8780 C   0  0  0  0  0  0  0  0  0  0  0  0
   -0.2430   -2.7633    1.1922 C   0  0  0  0  0  0  0  0  0  0  0  0
   -0.6981   -3.6351    0.0408 C   0  0  0  0  0  0  0  0  0  0  0  0
    6.2986   -1.2767    1.8095 H   0  0  0  0  0  0  0  0  0  0  0  0
    6.3427   -2.3506    0.4008 H   0  0  0  0  0  0  0  0  0  0  0  0
    5.2078   -2.6825    1.7102 H   0  0  0  0  0  0  0  0  0  0  0  0
    5.8569    0.7697    0.7457 H   0  0  0  0  0  0  0  0  0  0  0  0
    4.3070    2.2949   -0.4640 H   0  0  0  0  0  0  0  0  0  0  0  0
    2.2447    1.3767   -1.5100 H   0  0  0  0  0  0  0  0  0  0  0  0
    1.0591   -0.4765   -2.3520 H   0  0  0  0  0  0  0  0  0  0  0  0
    0.4808   -1.1729   -0.8260 H   0  0  0  0  0  0  0  0  0  0  0  0
    1.4680   -2.1557   -1.9245 H   0  0  0  0  0  0  0  0  0  0  0  0
    4.7237   -3.4266   -1.3325 H   0  0  0  0  0  0  0  0  0  0  0  0
    5.3388   -4.9319   -3.0955 H   0  0  0  0  0  0  0  0  0  0  0  0
    6.3599   -6.3609   -2.8113 H   0  0  0  0  0  0  0  0  0  0  0  0
    6.5281   -4.9197   -1.7829 H   0  0  0  0  0  0  0  0  0  0  0  0
    6.6252   -9.2418   -2.9583 H   0  0  0  0  0  0  0  0  0  0  0  0
    6.3897  -11.7265   -2.6757 H   0  0  0  0  0  0  0  0  0  0  0  0
    1.3022  -12.5030    1.9209 H   0  0  0  0  0  0  0  0  0  0  0  0
    1.0672  -14.9877    2.2040 H   0  0  0  0  0  0  0  0  0  0  0  0
    1.3323  -17.8686    2.0568 H   0  0  0  0  0  0  0  0  0  0  0  0
    2.3552  -19.2959    2.3431 H   0  0  0  0  0  0  0  0  0  0  0  0
    1.1659  -19.3114    1.0305 H   0  0  0  0  0  0  0  0  0  0  0  0
    2.9709  -20.8029    0.5807 H   0  0  0  0  0  0  0  0  0  0  0  0
    2.4848  -21.5537   -2.4629 H   0  0  0  0  0  0  0  0  0  0  0  0
    1.3580  -21.8749   -1.1443 H   0  0  0  0  0  0  0  0  0  0  0  0
    1.3890  -22.9567   -2.5474 H   0  0  0  0  0  0  0  0  0  0  0  0
    1.8413  -25.0027   -1.4914 H   0  0  0  0  0  0  0  0  0  0  0  0
    3.3956  -26.5256   -0.2843 H   0  0  0  0  0  0  0  0  0  0  0  0
    5.4581  -25.6042    0.7585 H   0  0  0  0  0  0  0  0  0  0  0  0
    6.6397  -23.7470    1.6011 H   0  0  0  0  0  0  0  0  0  0  0  0
    6.2315  -22.0691    1.1682 H   0  0  0  0  0  0  0  0  0  0  0  0
    7.2185  -23.0558    0.0729 H   0  0  0  0  0  0  0  0  0  0  0  0
    4.3402  -21.3259   -3.9736 H   0  0  0  0  0  0  0  0  0  0  0  0
    4.2177  -23.0499   -3.5731 H   0  0  0  0  0  0  0  0  0  0  0  0
    4.8570  -22.5557   -5.1526 H   0  0  0  0  0  0  0  0  0  0  0  0
    6.9735  -23.5809   -5.0743 H   0  0  0  0  0  0  0  0  0  0  0  0
    9.3269  -23.5659   -4.2671 H   0  0  0  0  0  0  0  0  0  0  0  0
    9.9416  -22.1820   -2.2925 H   0  0  0  0  0  0  0  0  0  0  0  0
    8.5828  -19.5594   -1.1308 H   0  0  0  0  0  0  0  0  0  0  0  0
    9.3345  -20.9726   -0.3705 H   0  0  0  0  0  0  0  0  0  0  0  0
    7.6511  -20.5291    0.0109 H   0  0  0  0  0  0  0  0  0  0  0  0
    6.4044  -18.9102   -2.4054 H   0  0  0  0  0  0  0  0  0  0  0  0
    7.0017  -16.6511   -1.8762 H   0  0  0  0  0  0  0  0  0  0  0  0
    5.9047  -15.2682   -2.1385 H   0  0  0  0  0  0  0  0  0  0  0  0
    5.8240  -16.7030   -3.1983 H   0  0  0  0  0  0  0  0  0  0  0  0
    1.7870   -8.9611    1.3837 H   0  0  0  0  0  0  0  0  0  0  0  0
    0.6901   -7.5782    1.1206 H   0  0  0  0  0  0  0  0  0  0  0  0
    1.8670   -7.5261    2.4434 H   0  0  0  0  0  0  0  0  0  0  0  0
    1.2889   -5.3193    1.6521 H   0  0  0  0  0  0  0  0  0  0  0  0
    3.3537   -2.9033    3.2179 H   0  0  0  0  0  0  0  0  0  0  0  0
    2.8341   -1.6796    4.4021 H   0  0  0  0  0  0  0  0  0  0  0  0
    3.4746   -1.1773    2.8257 H   0  0  0  0  0  0  0  0  0  0  0  0
    0.7194   -0.6469    4.3198 H   0  0  0  0  0  0  0  0  0  0  0  0
   -1.6331   -0.6597    3.5102 H   0  0  0  0  0  0  0  0  0  0  0  0
   -2.2474   -2.0444    1.5360 H   0  0  0  0  0  0  0  0  0  0  0  0
   -1.6474   -3.2648   -0.3751 H   0  0  0  0  0  0  0  0  0  0  0  0
   -0.8731   -4.6729    0.3722 H   0  0  0  0  0  0  0  0  0  0  0  0
    0.0380   -3.6869   -0.7717 H   0  0  0  0  0  0  0  0  0  0  0  0
  1  2  1  0
  1 71  1  0
  1 72  1  0
  1 73  1  0
  2  3  2  0
  2  8  1  0
  3  4  1  0
  3 74  1  0
  4  5  2  0
  4 75  1  0
  5  6  1  0
  5 76  1  0
  6  7  1  0
  6  8  2  0
  7 77  1  0
  7 78  1  0
  7 79  1  0
  8  9  1  0
  9 10  2  0
  9 62  1  0
 10 11  1  0
 10 80  1  0
 11 12  2  0
 11 60  1  0
 12 13  1  0
 12 14  1  0
 13 81  1  0
 13 82  1  0
 13 83  1  0
 14 15  2  0
 14 57  1  0
 15 16  1  0
 15 56  1  0
 16 17  2  0
 16 84  1  0
 17 18  1  0
 17 85  1  0
 18 19  1  0
 18 55  2  0
 19 20  2  0
 20 21  1  0
 20 53  1  0
 21 22  1  0
 21 54  2  0
 22 23  2  0
 22 86  1  0
 23 24  1  0
 23 87  1  0
 24 25  1  0
 24 53  2  0
 25 26  1  0
 25 52  2  0
 26 27  1  0
 26 28  2  0
 27 88  1  0
 27 89  1  0
 27 90  1  0
 28 29  1  0
 28 49  1  0
 29 30  2  0
 29 91  1  0
 30 31  1  0
 30 39  1  0
 31 32  2  0
 31 37  1  0
 32 33  1  0
 32 34  1  0
 33 92  1  0
 33 93  1  0
 33 94  1  0
 34 35  2  0
 34 95  1  0
 35 36  1  0
 35 96  1  0
 36 37  2  0
 36 97  1  0
 37 38  1  0
 38 98  1  0
 38 99  1  0
 38100  1  0
 39 40  1  0
 39 48  2  0
 40 41  2  0
 40 46  1  0
 41 42  1  0
 41 43  1  0
 42101  1  0
 42102  1  0
 42103  1  0
 43 44  2  0
 43104  1  0
 44 45  1  0
 44105  1  0
 45 46  2  0
 45106  1  0
 46 47  1  0
 47107  1  0
 47108  1  0
 47109  1  0
 48 49  1  0
 48110  1  0
 49 50  2  0
 50 51  1  0
 50 52  1  0
 51111  1  0
 51112  1  0
 51113  1  0
 52 53  1  0
 54 55  1  0
 55 56  1  0
 56 57  2  0
 57 58  1  0
 58 59  1  0
 58 60  2  0
 59114  1  0
 59115  1  0
 59116  1  0
 60 61  1  0
 61 62  2  0
 61117  1  0
 62 63  1  0
 63 64  2  0
 63 69  1  0
 64 65  1  0
 64 66  1  0
 65118  1  0
 65119  1  0
 65120  1  0
 66 67  2  0
 66121  1  0
 67 68  1  0
 67122  1  0
 68 69  2  0
 68123  1  0
 69 70  1  0
 70124  1  0
 70125  1  0
 70126  1  0
M  END

