
     RDKit          3D

 57 61  0  0  0  0  0  0  0  0999 V2000
    2.0850    0.6770    0.8825 C   0  0  0  0  0  0  0  0  0  0  0  0
    3.4501    0.0003    0.6176 C   0  0  1  0  0  0  0  0  0  0  0  0
    4.4656    1.0609    0.1330 C   0  0  0  0  0  0  0  0  0  0  0  0
    3.9626   -0.5807    1.9477 C   0  0  0  0  0  0  0  0  0  0  0  0
    3.2846   -1.0873   -0.4650 C   0  0  0  0  0  0  0  0  0  0  0  0
    2.8164   -0.7122   -1.7531 C   0  0  0  0  0  0  0  0  0  0  0  0
    2.6340   -1.6211   -2.7978 C   0  0  0  0  0  0  0  0  0  0  0  0
    2.9399   -2.9448   -2.5109 C   0  0  0  0  0  0  0  0  0  0  0  0
    2.8664   -4.0498   -3.3118 O   0  0  0  0  0  0  0  0  0  0  0  0
    3.2887   -5.0805   -2.5072 C   0  0  0  0  0  0  0  0  0  0  0  0
    3.3225   -6.4051   -3.0819 C   0  0  0  0  0  0  0  0  0  0  0  0
    3.7156   -7.5713   -2.4432 C   0  0  0  0  0  0  0  0  0  0  0  0
    3.6351   -8.7052   -3.2794 C   0  0  0  0  0  0  0  0  0  0  0  0
    3.1809   -8.4006   -4.5535 C   0  0  0  0  0  0  0  0  0  0  0  0
    2.9868   -9.3304   -5.6415 C   0  0  0  0  0  0  0  0  0  0  0  0
    3.2001  -10.6127   -5.6326 N   0  0  0  0  0  0  0  0  0  0  0  0
    2.8615  -11.0328   -6.9108 C   0  0  0  0  0  0  0  0  0  0  0  0
    2.8804  -12.2991   -7.5033 C   0  0  0  0  0  0  0  0  0  0  0  0
    2.4752  -12.4334   -8.8420 C   0  0  0  0  0  0  0  0  0  0  0  0
    2.4955  -13.8316   -9.4983 C   0  0  1  0  0  0  0  0  0  0  0  0
    1.5635  -14.7818   -8.7112 C   0  0  0  0  0  0  0  0  0  0  0  0
    2.0205  -13.8011  -10.9625 C   0  0  0  0  0  0  0  0  0  0  0  0
    3.9376  -14.3894   -9.4731 C   0  0  0  0  0  0  0  0  0  0  0  0
    2.0602  -11.2776   -9.5478 C   0  0  0  0  0  0  0  0  0  0  0  0
    2.0334   -9.9995   -8.9745 C   0  0  0  0  0  0  0  0  0  0  0  0
    2.4412   -9.9151   -7.6533 C   0  0  0  0  0  0  0  0  0  0  0  0
    2.5239   -8.8245   -6.8325 O   0  0  0  0  0  0  0  0  0  0  0  0
    2.8475   -6.7015   -4.7298 S   0  0  0  0  0  0  0  0  0  0  0  0
    3.6154   -4.7349   -1.2969 N   0  0  0  0  0  0  0  0  0  0  0  0
    3.4054   -3.3648   -1.2553 C   0  0  0  0  0  0  0  0  0  0  0  0
    3.5811   -2.4344   -0.2208 C   0  0  0  0  0  0  0  0  0  0  0  0
    2.1858    1.4567    1.6554 H   0  0  0  0  0  0  0  0  0  0  0  0
    1.3425   -0.0569    1.2342 H   0  0  0  0  0  0  0  0  0  0  0  0
    1.6792    1.1565   -0.0213 H   0  0  0  0  0  0  0  0  0  0  0  0
    4.5962    1.8453    0.8966 H   0  0  0  0  0  0  0  0  0  0  0  0
    4.1376    1.5532   -0.7953 H   0  0  0  0  0  0  0  0  0  0  0  0
    5.4501    0.6057   -0.0593 H   0  0  0  0  0  0  0  0  0  0  0  0
    4.0653    0.2254    2.6912 H   0  0  0  0  0  0  0  0  0  0  0  0
    4.9503   -1.0544    1.8362 H   0  0  0  0  0  0  0  0  0  0  0  0
    3.2693   -1.3277    2.3646 H   0  0  0  0  0  0  0  0  0  0  0  0
    2.5844    0.3368   -1.9476 H   0  0  0  0  0  0  0  0  0  0  0  0
    2.2730   -1.3075   -3.7786 H   0  0  0  0  0  0  0  0  0  0  0  0
    4.0463   -7.5774   -1.4046 H   0  0  0  0  0  0  0  0  0  0  0  0
    3.8941   -9.7226   -2.9867 H   0  0  0  0  0  0  0  0  0  0  0  0
    3.2094  -13.1554   -6.9129 H   0  0  0  0  0  0  0  0  0  0  0  0
    0.5263  -14.4104   -8.7147 H   0  0  0  0  0  0  0  0  0  0  0  0
    1.8765  -14.8886   -7.6615 H   0  0  0  0  0  0  0  0  0  0  0  0
    1.5669  -15.7871   -9.1638 H   0  0  0  0  0  0  0  0  0  0  0  0
    0.9837  -13.4407  -11.0527 H   0  0  0  0  0  0  0  0  0  0  0  0
    2.0530  -14.8180  -11.3841 H   0  0  0  0  0  0  0  0  0  0  0  0
    2.6619  -13.1638  -11.5914 H   0  0  0  0  0  0  0  0  0  0  0  0
    4.3241  -14.4837   -8.4470 H   0  0  0  0  0  0  0  0  0  0  0  0
    4.6248  -13.7330  -10.0304 H   0  0  0  0  0  0  0  0  0  0  0  0
    3.9718  -15.3897   -9.9354 H   0  0  0  0  0  0  0  0  0  0  0  0
    1.7436  -11.3681  -10.5862 H   0  0  0  0  0  0  0  0  0  0  0  0
    1.7094   -9.1241   -9.5395 H   0  0  0  0  0  0  0  0  0  0  0  0
    3.9433   -2.7849    0.7442 H   0  0  0  0  0  0  0  0  0  0  0  0
  2  1  1  1
  1 32  1  0
  1 33  1  0
  1 34  1  0
  2  3  1  0
  2  4  1  0
  2  5  1  0
  3 35  1  0
  3 36  1  0
  3 37  1  0
  4 38  1  0
  4 39  1  0
  4 40  1  0
  5  6  2  0
  5 31  1  0
  6  7  1  0
  6 41  1  0
  7  8  2  0
  7 42  1  0
  8  9  1  0
  8 30  1  0
  9 10  1  0
 10 11  1  0
 10 29  2  0
 11 12  2  0
 11 28  1  0
 12 13  1  0
 12 43  1  0
 13 14  2  0
 13 44  1  0
 14 15  1  0
 14 28  1  0
 15 16  2  0
 15 27  1  0
 16 17  1  0
 17 18  2  0
 17 26  1  0
 18 19  1  0
 18 45  1  0
 19 20  1  0
 19 24  2  0
 20 21  1  1
 20 22  1  0
 20 23  1  0
 21 46  1  0
 21 47  1  0
 21 48  1  0
 22 49  1  0
 22 50  1  0
 22 51  1  0
 23 52  1  0
 23 53  1  0
 23 54  1  0
 24 25  1  0
 24 55  1  0
 25 26  2  0
 25 56  1  0
 26 27  1  0
 29 30  1  0
 30 31  2  0
 31 57  1  0
M  END

