
     RDKit          3D

 38 40  0  0  0  0  0  0  0  0999 V2000
    1.8090   -0.7558    0.2282 C   0  0  0  0  0  0  0  0  0  0  0  0
    3.0232   -0.0065   -0.2915 C   0  0  0  0  0  0  0  0  0  0  0  0
    3.4353    1.0406    0.6170 O   0  0  0  0  0  0  0  0  0  0  0  0
    4.2704    0.6959    1.6366 C   0  0  0  0  0  0  0  0  0  0  0  0
    4.6482   -0.4416    1.7948 O   0  0  0  0  0  0  0  0  0  0  0  0
    4.6388    1.8268    2.5326 C   0  0  0  0  0  0  0  0  0  0  0  0
    5.3445    1.4439    3.7136 C   0  0  0  0  0  0  0  0  0  0  0  0
    5.7925    2.2627    4.6289 N   0  0  0  0  0  0  0  0  0  0  0  0
    5.5152    3.5887    4.4737 C   0  0  0  0  0  0  0  0  0  0  0  0
    5.9301    4.4773    5.5031 C   0  0  0  0  0  0  0  0  0  0  0  0
    5.6135    5.8171    5.4639 C   0  0  0  0  0  0  0  0  0  0  0  0
    4.8491    6.3142    4.3815 C   0  0  0  0  0  0  0  0  0  0  0  0
    4.3970    8.0030    4.3739 Cl  0  0  0  0  0  0  0  0  0  0  0  0
    4.4495    5.4922    3.3470 C   0  0  0  0  0  0  0  0  0  0  0  0
    4.8002    4.1148    3.3504 C   0  0  0  0  0  0  0  0  0  0  0  0
    4.4065    3.1989    2.3009 C   0  0  0  0  0  0  0  0  0  0  0  0
    3.7753    3.6453    1.1581 N   0  0  0  0  0  0  0  0  0  0  0  0
    4.1291    4.7460    0.3449 C   0  0  0  0  0  0  0  0  0  0  0  0
    5.4260    5.2870    0.3105 C   0  0  0  0  0  0  0  0  0  0  0  0
    5.7208    6.3469   -0.5465 C   0  0  0  0  0  0  0  0  0  0  0  0
    4.7422    6.8618   -1.3925 C   0  0  0  0  0  0  0  0  0  0  0  0
    5.0391    7.8684   -2.2166 F   0  0  0  0  0  0  0  0  0  0  0  0
    3.4515    6.3200   -1.3818 C   0  0  0  0  0  0  0  0  0  0  0  0
    2.2376    6.9681   -2.4447 Cl  0  0  0  0  0  0  0  0  0  0  0  0
    3.1462    5.2747   -0.5085 C   0  0  0  0  0  0  0  0  0  0  0  0
    1.4794   -1.4924   -0.5219 H   0  0  0  0  0  0  0  0  0  0  0  0
    0.9717   -0.0681    0.4243 H   0  0  0  0  0  0  0  0  0  0  0  0
    2.0507   -1.2965    1.1547 H   0  0  0  0  0  0  0  0  0  0  0  0
    2.8022    0.5171   -1.2328 H   0  0  0  0  0  0  0  0  0  0  0  0
    3.8724   -0.6862   -0.4478 H   0  0  0  0  0  0  0  0  0  0  0  0
    5.5406    0.3749    3.8471 H   0  0  0  0  0  0  0  0  0  0  0  0
    6.4914    4.0472    6.3344 H   0  0  0  0  0  0  0  0  0  0  0  0
    5.9232    6.4961    6.2600 H   0  0  0  0  0  0  0  0  0  0  0  0
    3.8470    5.9110    2.5443 H   0  0  0  0  0  0  0  0  0  0  0  0
    3.3079    2.8937    0.6544 H   0  0  0  0  0  0  0  0  0  0  0  0
    6.2085    4.8772    0.9498 H   0  0  0  0  0  0  0  0  0  0  0  0
    6.7224    6.7803   -0.5837 H   0  0  0  0  0  0  0  0  0  0  0  0
    2.1305    4.8766   -0.4898 H   0  0  0  0  0  0  0  0  0  0  0  0
  1  2  1  0
  1 26  1  0
  1 27  1  0
  1 28  1  0
  2  3  1  0
  2 29  1  0
  2 30  1  0
  3  4  1  0
  4  5  2  0
  4  6  1  0
  6  7  2  0
  6 16  1  0
  7  8  1  0
  7 31  1  0
  8  9  2  0
  9 10  1  0
  9 15  1  0
 10 11  2  0
 10 32  1  0
 11 12  1  0
 11 33  1  0
 12 13  1  0
 12 14  2  0
 14 15  1  0
 14 34  1  0
 15 16  2  0
 16 17  1  0
 17 18  1  0
 17 35  1  0
 18 19  2  0
 18 25  1  0
 19 20  1  0
 19 36  1  0
 20 21  2  0
 20 37  1  0
 21 22  1  0
 21 23  1  0
 23 24  1  0
 23 25  2  0
 25 38  1  0
M  END

