
     RDKit          3D

 38 40  0  0  0  0  0  0  0  0999 V2000
    1.0828   -1.3257    1.5061 C   0  0  0  0  0  0  0  0  0  0  0  0
    2.5259   -1.7073    1.7929 C   0  0  2  0  0  0  0  0  0  0  0  0
    2.5691   -2.7793    2.0726 H   0  0  0  0  0  0  0  0  0  0  0  0
    2.9846   -0.8992    2.8622 O   0  0  0  0  0  0  0  0  0  0  0  0
    3.4255   -1.5225    0.5593 C   0  0  0  0  0  0  0  0  0  0  0  0
    4.8323   -1.7475    0.8515 N   0  0  0  0  0  0  0  0  0  0  0  0
    5.4680   -2.9604    0.7756 C   0  0  0  0  0  0  0  0  0  0  0  0
    4.6456   -4.0526    0.6133 N   0  0  0  0  0  0  0  0  0  0  0  0
    5.2003   -5.2405    0.5496 C   0  0  0  0  0  0  0  0  0  0  0  0
    6.6013   -5.3897    0.6508 C   0  0  0  0  0  0  0  0  0  0  0  0
    7.5676   -6.4041    0.6398 C   0  0  0  0  0  0  0  0  0  0  0  0
    8.7552   -5.7802    0.7861 N   0  0  0  0  0  0  0  0  0  0  0  0
   10.0698   -6.4191    0.8271 C   0  0  1  0  0  0  0  0  0  0  0  0
   11.0120   -5.9671   -0.3021 C   0  0  0  0  0  0  0  0  0  0  0  0
   12.3865   -6.3990    0.2173 C   0  0  0  0  0  0  0  0  0  0  0  0
   12.3461   -6.0304    1.7166 C   0  0  0  0  0  0  0  0  0  0  0  0
   10.8548   -6.1371    2.1361 C   0  0  0  0  0  0  0  0  0  0  0  0
    8.6748   -4.4383    0.8933 N   0  0  0  0  0  0  0  0  0  0  0  0
    7.3609   -4.1772    0.8141 C   0  0  0  0  0  0  0  0  0  0  0  0
    6.7890   -2.9588    0.8712 N   0  0  0  0  0  0  0  0  0  0  0  0
    1.0160   -0.2646    1.2148 H   0  0  0  0  0  0  0  0  0  0  0  0
    0.4672   -1.4676    2.4070 H   0  0  0  0  0  0  0  0  0  0  0  0
    0.6627   -1.9422    0.6960 H   0  0  0  0  0  0  0  0  0  0  0  0
    3.9215   -1.1116    2.9826 H   0  0  0  0  0  0  0  0  0  0  0  0
    3.3240   -0.4845    0.2025 H   0  0  0  0  0  0  0  0  0  0  0  0
    3.0950   -2.1987   -0.2448 H   0  0  0  0  0  0  0  0  0  0  0  0
    5.4659   -0.9572    0.8558 H   0  0  0  0  0  0  0  0  0  0  0  0
    4.5326   -6.1020    0.4159 H   0  0  0  0  0  0  0  0  0  0  0  0
    7.4970   -7.4855    0.5429 H   0  0  0  0  0  0  0  0  0  0  0  0
    9.8751   -7.4983    0.7283 H   0  0  0  0  0  0  0  0  0  0  0  0
   10.9511   -4.8703   -0.3851 H   0  0  0  0  0  0  0  0  0  0  0  0
   10.7420   -6.3995   -1.2782 H   0  0  0  0  0  0  0  0  0  0  0  0
   13.2194   -5.9224   -0.3218 H   0  0  0  0  0  0  0  0  0  0  0  0
   12.5063   -7.4900    0.0950 H   0  0  0  0  0  0  0  0  0  0  0  0
   12.7007   -4.9973    1.8565 H   0  0  0  0  0  0  0  0  0  0  0  0
   13.0021   -6.6750    2.3209 H   0  0  0  0  0  0  0  0  0  0  0  0
   10.4937   -5.1927    2.5658 H   0  0  0  0  0  0  0  0  0  0  0  0
   10.6763   -6.9290    2.8794 H   0  0  0  0  0  0  0  0  0  0  0  0
  1  2  1  0
  1 21  1  0
  1 22  1  0
  1 23  1  0
  2  3  1  1
  2  4  1  0
  2  5  1  0
  4 24  1  0
  5  6  1  0
  5 25  1  0
  5 26  1  0
  6  7  1  0
  6 27  1  0
  7  8  1  0
  7 20  2  0
  8  9  2  0
  9 10  1  0
  9 28  1  0
 10 11  2  0
 10 19  1  0
 11 12  1  0
 11 29  1  0
 12 13  1  0
 12 18  1  0
 13 14  1  0
 13 17  1  0
 13 30  1  6
 14 15  1  0
 14 31  1  0
 14 32  1  0
 15 16  1  0
 15 33  1  0
 15 34  1  0
 16 17  1  0
 16 35  1  0
 16 36  1  0
 17 37  1  0
 17 38  1  0
 18 19  2  0
 19 20  1  0
M  END

