
     RDKit          3D

 47 49  0  0  0  0  0  0  0  0999 V2000
    8.9977    2.0572   -9.6202 C   0  0  0  0  0  0  0  0  0  0  0  0
    8.5028    1.2216   -8.4560 C   0  0  0  0  0  0  0  0  0  0  0  0
    9.5683    1.0932   -7.5221 O   0  0  0  0  0  0  0  0  0  0  0  0
    9.3929    0.3917   -6.3829 C   0  0  0  0  0  0  0  0  0  0  0  0
    8.1954   -0.2540   -6.0255 C   0  0  0  0  0  0  0  0  0  0  0  0
    8.1202   -0.9535   -4.8191 C   0  0  0  0  0  0  0  0  0  0  0  0
    9.2335   -1.0099   -3.9797 C   0  0  0  0  0  0  0  0  0  0  0  0
    9.0946   -1.8691   -2.4272 S   0  0  1  0  0  0  0  0  0  0  0  0
    9.9721   -1.2335   -1.4551 O   0  0  0  0  0  0  0  0  0  0  0  0
    7.6777   -2.1170   -2.1465 O   0  0  0  0  0  0  0  0  0  0  0  0
    9.6597   -3.4585   -2.7352 N   0  0  0  0  0  0  0  0  0  0  0  0
   10.9909   -3.7902   -2.9918 C   0  0  0  0  0  0  0  0  0  0  0  0
   11.8252   -2.9374   -3.2470 O   0  0  0  0  0  0  0  0  0  0  0  0
   11.2650   -5.1395   -2.9623 N   0  0  0  0  0  0  0  0  0  0  0  0
   10.3017   -6.1441   -2.5392 C   0  0  0  0  0  0  0  0  0  0  0  0
   12.6349   -5.5493   -3.2809 C   0  0  0  0  0  0  0  0  0  0  0  0
   13.4713   -5.8648   -2.0820 C   0  0  0  0  0  0  0  0  0  0  0  0
   14.3670   -5.1269   -1.3680 C   0  0  0  0  0  0  0  0  0  0  0  0
   14.8175   -5.9675   -0.2840 C   0  0  0  0  0  0  0  0  0  0  0  0
   15.7155   -5.8356    0.7901 C   0  0  0  0  0  0  0  0  0  0  0  0
   15.8828   -6.9172    1.6533 C   0  0  0  0  0  0  0  0  0  0  0  0
   15.1748   -8.1222    1.4649 C   0  0  0  0  0  0  0  0  0  0  0  0
   14.2779   -8.2778    0.4060 C   0  0  0  0  0  0  0  0  0  0  0  0
   14.1229   -7.1856   -0.4441 C   0  0  0  0  0  0  0  0  0  0  0  0
   13.3076   -7.1191   -1.5356 O   0  0  0  0  0  0  0  0  0  0  0  0
   10.4316   -0.3642   -4.3200 C   0  0  0  0  0  0  0  0  0  0  0  0
   10.5057    0.3293   -5.5193 C   0  0  0  0  0  0  0  0  0  0  0  0
    8.1979    2.1787  -10.3668 H   0  0  0  0  0  0  0  0  0  0  0  0
    9.8591    1.5750  -10.1069 H   0  0  0  0  0  0  0  0  0  0  0  0
    9.3097    3.0555   -9.2776 H   0  0  0  0  0  0  0  0  0  0  0  0
    8.1820    0.2201   -8.7983 H   0  0  0  0  0  0  0  0  0  0  0  0
    7.6335    1.7011   -7.9687 H   0  0  0  0  0  0  0  0  0  0  0  0
    7.3179   -0.2112   -6.6699 H   0  0  0  0  0  0  0  0  0  0  0  0
    7.1925   -1.4436   -4.5188 H   0  0  0  0  0  0  0  0  0  0  0  0
    8.9298   -4.1478   -2.5887 H   0  0  0  0  0  0  0  0  0  0  0  0
    9.8388   -5.8853   -1.5721 H   0  0  0  0  0  0  0  0  0  0  0  0
   10.8220   -7.0995   -2.3972 H   0  0  0  0  0  0  0  0  0  0  0  0
    9.5005   -6.3006   -3.2859 H   0  0  0  0  0  0  0  0  0  0  0  0
   13.1001   -4.7201   -3.8257 H   0  0  0  0  0  0  0  0  0  0  0  0
   12.5986   -6.4298   -3.9439 H   0  0  0  0  0  0  0  0  0  0  0  0
   14.6570   -4.1017   -1.5876 H   0  0  0  0  0  0  0  0  0  0  0  0
   16.2680   -4.9058    0.9452 H   0  0  0  0  0  0  0  0  0  0  0  0
   16.5753   -6.8331    2.4945 H   0  0  0  0  0  0  0  0  0  0  0  0
   15.3306   -8.9503    2.1607 H   0  0  0  0  0  0  0  0  0  0  0  0
   13.7229   -9.2040    0.2463 H   0  0  0  0  0  0  0  0  0  0  0  0
   11.2887   -0.4270   -3.6498 H   0  0  0  0  0  0  0  0  0  0  0  0
   11.4214    0.8421   -5.8194 H   0  0  0  0  0  0  0  0  0  0  0  0
  1  2  1  0
  1 28  1  0
  1 29  1  0
  1 30  1  0
  2  3  1  0
  2 31  1  0
  2 32  1  0
  3  4  1  0
  4  5  2  0
  4 27  1  0
  5  6  1  0
  5 33  1  0
  6  7  2  0
  6 34  1  0
  7  8  1  0
  7 26  1  0
  8  9  2  0
  8 10  2  0
  8 11  1  6
 11 12  1  0
 11 35  1  0
 12 13  2  0
 12 14  1  0
 14 15  1  0
 14 16  1  0
 15 36  1  0
 15 37  1  0
 15 38  1  0
 16 17  1  0
 16 39  1  0
 16 40  1  0
 17 18  2  0
 17 25  1  0
 18 19  1  0
 18 41  1  0
 19 20  2  0
 19 24  1  0
 20 21  1  0
 20 42  1  0
 21 22  2  0
 21 43  1  0
 22 23  1  0
 22 44  1  0
 23 24  2  0
 23 45  1  0
 24 25  1  0
 26 27  2  0
 26 46  1  0
 27 47  1  0
M  END

