
     RDKit          3D

 68 73  0  0  0  0  0  0  0  0999 V2000
    2.6244   -4.7189    0.2995 O   0  0  0  0  0  0  0  0  0  0  0  0
    2.9492   -3.5567    0.4939 C   0  0  0  0  0  0  0  0  0  0  0  0
    1.9202   -2.4723    0.2526 C   0  0  0  0  0  0  0  0  0  0  0  0
    0.6073   -2.7469    0.6736 C   0  0  0  0  0  0  0  0  0  0  0  0
   -0.4265   -1.8501    0.4166 C   0  0  0  0  0  0  0  0  0  0  0  0
   -0.1396   -0.6849   -0.2963 C   0  0  0  0  0  0  0  0  0  0  0  0
   -1.2333    0.2707   -0.5810 N   0  0  0  0  0  0  0  0  0  0  0  0
   -2.3460   -0.0082   -0.1656 O   0  0  0  0  0  0  0  0  0  0  0  0
   -0.9522    1.2767   -1.2112 O   0  0  0  0  0  0  0  0  0  0  0  0
    1.1452   -0.3976   -0.7546 C   0  0  0  0  0  0  0  0  0  0  0  0
    2.1757   -1.2955   -0.4719 C   0  0  0  0  0  0  0  0  0  0  0  0
    4.2203   -3.2105    0.9023 N   0  0  0  0  0  0  0  0  0  0  0  0
    5.1880   -4.2935    1.1189 C   0  0  0  0  0  0  0  0  0  0  0  0
    6.5873   -3.8831    0.6507 C   0  0  0  0  0  0  0  0  0  0  0  0
    7.0208   -2.5474    1.2674 C   0  0  0  0  0  0  0  0  0  0  0  0
    5.9541   -1.4559    1.0412 C   0  0  1  0  0  0  0  0  0  0  0  0
    6.2341   -0.5533    1.6006 H   0  0  0  0  0  0  0  0  0  0  0  0
    5.8491   -1.0559   -0.3548 N   0  0  0  0  0  0  0  0  0  0  0  0
    6.5487   -0.0185   -0.9135 C   0  0  0  0  0  0  0  0  0  0  0  0
    7.2199    0.8076   -0.0947 N   0  0  0  0  0  0  0  0  0  0  0  0
    7.8437    1.8193   -0.6866 C   0  0  0  0  0  0  0  0  0  0  0  0
    7.8357    2.0255   -2.0665 C   0  0  0  0  0  0  0  0  0  0  0  0
    8.6898    3.4280   -2.6686 Cl  0  0  0  0  0  0  0  0  0  0  0  0
    7.1209    1.0939   -2.8687 C   0  0  0  0  0  0  0  0  0  0  0  0
    7.0076    1.1250   -4.3320 C   0  0  0  0  0  0  0  0  0  0  0  0
    7.7727    1.8549   -5.2192 C   0  0  0  0  0  0  0  0  0  0  0  0
    7.3643    1.6084   -6.5166 N   0  0  0  0  0  0  0  0  0  0  0  0
    8.2551    2.1753   -7.8866 S   0  0  1  0  0  0  0  0  0  0  0  0
    7.2942    2.3056   -8.9740 O   0  0  0  0  0  0  0  0  0  0  0  0
    9.0354    3.2985   -7.3801 O   0  0  0  0  0  0  0  0  0  0  0  0
    9.3730    0.8264   -8.2609 C   0  0  0  0  0  0  0  0  0  0  0  0
    9.0055   -0.1220   -9.2202 C   0  0  0  0  0  0  0  0  0  0  0  0
    9.8880   -1.1676   -9.5026 C   0  0  0  0  0  0  0  0  0  0  0  0
   11.1155   -1.2504   -8.8376 C   0  0  0  0  0  0  0  0  0  0  0  0
   11.4741   -0.2840   -7.8910 C   0  0  0  0  0  0  0  0  0  0  0  0
   10.6039    0.7674   -7.5977 C   0  0  0  0  0  0  0  0  0  0  0  0
    6.2997    0.6925   -6.5017 C   0  0  0  0  0  0  0  0  0  0  0  0
    5.5391    0.1710   -7.5547 C   0  0  0  0  0  0  0  0  0  0  0  0
    4.5214   -0.7223   -7.2273 C   0  0  0  0  0  0  0  0  0  0  0  0
    4.2657   -1.0736   -5.8887 C   0  0  0  0  0  0  0  0  0  0  0  0
    5.0180   -0.5394   -4.8459 C   0  0  0  0  0  0  0  0  0  0  0  0
    6.0582    0.3612   -5.1417 C   0  0  0  0  0  0  0  0  0  0  0  0
    6.4847    0.0888   -2.2475 N   0  0  0  0  0  0  0  0  0  0  0  0
    4.5941   -1.9545    1.5538 C   0  0  0  0  0  0  0  0  0  0  0  0
    0.4071   -3.6833    1.1969 H   0  0  0  0  0  0  0  0  0  0  0  0
   -1.4480   -2.0377    0.7461 H   0  0  0  0  0  0  0  0  0  0  0  0
    1.3203    0.5157   -1.3225 H   0  0  0  0  0  0  0  0  0  0  0  0
    3.1820   -1.0726   -0.8294 H   0  0  0  0  0  0  0  0  0  0  0  0
    4.8203   -5.1814    0.5920 H   0  0  0  0  0  0  0  0  0  0  0  0
    5.2121   -4.5412    2.1990 H   0  0  0  0  0  0  0  0  0  0  0  0
    6.5951   -3.8117   -0.4510 H   0  0  0  0  0  0  0  0  0  0  0  0
    7.3025   -4.6796    0.9125 H   0  0  0  0  0  0  0  0  0  0  0  0
    7.9864   -2.2118    0.8579 H   0  0  0  0  0  0  0  0  0  0  0  0
    7.1632   -2.6721    2.3558 H   0  0  0  0  0  0  0  0  0  0  0  0
    5.4981   -1.7335   -1.0221 H   0  0  0  0  0  0  0  0  0  0  0  0
    8.3898    2.5206   -0.0458 H   0  0  0  0  0  0  0  0  0  0  0  0
    8.5872    2.5472   -5.0430 H   0  0  0  0  0  0  0  0  0  0  0  0
    8.0531   -0.0310   -9.7435 H   0  0  0  0  0  0  0  0  0  0  0  0
    9.6166   -1.9164  -10.2503 H   0  0  0  0  0  0  0  0  0  0  0  0
   11.8019   -2.0699   -9.0641 H   0  0  0  0  0  0  0  0  0  0  0  0
   12.4398   -0.3439   -7.3838 H   0  0  0  0  0  0  0  0  0  0  0  0
   10.8764    1.5418   -6.8790 H   0  0  0  0  0  0  0  0  0  0  0  0
    5.7181    0.4795   -8.5836 H   0  0  0  0  0  0  0  0  0  0  0  0
    3.9058   -1.1457   -8.0247 H   0  0  0  0  0  0  0  0  0  0  0  0
    3.4569   -1.7734   -5.6639 H   0  0  0  0  0  0  0  0  0  0  0  0
    4.8214   -0.8065   -3.8102 H   0  0  0  0  0  0  0  0  0  0  0  0
    3.8203   -1.1961    1.3989 H   0  0  0  0  0  0  0  0  0  0  0  0
    4.6754   -2.1244    2.6451 H   0  0  0  0  0  0  0  0  0  0  0  0
  1  2  2  0
  2  3  1  0
  2 12  1  0
  3  4  2  0
  3 11  1  0
  4  5  1  0
  4 45  1  0
  5  6  2  0
  5 46  1  0
  6  7  1  0
  6 10  1  0
  7  8  2  0
  7  9  1  0
 10 11  2  0
 10 47  1  0
 11 48  1  0
 12 13  1  0
 12 44  1  0
 13 14  1  0
 13 49  1  0
 13 50  1  0
 14 15  1  0
 14 51  1  0
 14 52  1  0
 15 16  1  0
 15 53  1  0
 15 54  1  0
 16 17  1  1
 16 18  1  0
 16 44  1  0
 18 19  1  0
 18 55  1  0
 19 20  2  0
 19 43  1  0
 20 21  1  0
 21 22  2  0
 21 56  1  0
 22 23  1  0
 22 24  1  0
 24 25  1  0
 24 43  2  0
 25 26  2  0
 25 42  1  0
 26 27  1  0
 26 57  1  0
 27 28  1  0
 27 37  1  0
 28 29  2  0
 28 30  2  0
 28 31  1  6
 31 32  2  0
 31 36  1  0
 32 33  1  0
 32 58  1  0
 33 34  2  0
 33 59  1  0
 34 35  1  0
 34 60  1  0
 35 36  2  0
 35 61  1  0
 36 62  1  0
 37 38  1  0
 37 42  2  0
 38 39  2  0
 38 63  1  0
 39 40  1  0
 39 64  1  0
 40 41  2  0
 40 65  1  0
 41 42  1  0
 41 66  1  0
 44 67  1  0
 44 68  1  0
M  CHG  2   7   1   9  -1
M  END

