
     RDKit          3D

 50 58  0  0  0  0  0  0  0  0999 V2000
    2.7719   -1.0040   -0.0748 C   0  0  0  0  0  0  0  0  0  0  0  0
    3.5411    0.2801   -0.0155 C   0  0  0  0  0  0  0  0  0  0  0  0
    4.8585    0.4681    0.3389 C   0  0  0  0  0  0  0  0  0  0  0  0
    5.2170    1.8381    0.2688 C   0  0  0  0  0  0  0  0  0  0  0  0
    6.3929    2.4899    0.5229 O   0  0  0  0  0  0  0  0  0  0  0  0
    6.1130    3.8039    0.2766 C   0  0  0  0  0  0  0  0  0  0  0  0
    6.7487    5.0582    0.2970 C   0  0  0  0  0  0  0  0  0  0  0  0
    8.2896    5.8117    0.6454 S   0  0  0  0  0  0  0  0  0  0  0  0
    7.6098    7.4021    0.2489 C   0  0  0  0  0  0  0  0  0  0  0  0
    8.3161    8.5993    0.3004 C   0  0  0  0  0  0  0  0  0  0  0  0
    7.6586    9.7970   -0.0399 C   0  0  0  0  0  0  0  0  0  0  0  0
    6.2784    9.7416   -0.4294 C   0  0  0  0  0  0  0  0  0  0  0  0
    5.5722    8.5444   -0.4811 C   0  0  0  0  0  0  0  0  0  0  0  0
    6.2297    7.3466   -0.1409 C   0  0  0  0  0  0  0  0  0  0  0  0
    5.7689    5.9875   -0.1023 C   0  0  0  0  0  0  0  0  0  0  0  0
    4.5669    5.3374   -0.3635 N   0  0  0  0  0  0  0  0  0  0  0  0
    3.3243    5.9447   -0.7904 C   0  0  0  0  0  0  0  0  0  0  0  0
    4.7852    3.9979   -0.1284 C   0  0  0  0  0  0  0  0  0  0  0  0
    4.1959    2.7003   -0.1329 C   0  0  0  0  0  0  0  0  0  0  0  0
    2.7404    1.8011   -0.4371 S   0  0  0  0  0  0  0  0  0  0  0  0
    5.5984   11.3322   -0.8251 S   0  0  0  0  0  0  0  0  0  0  0  0
    7.1396   12.0855   -0.4776 C   0  0  0  0  0  0  0  0  0  0  0  0
    7.7746   13.3399   -0.4543 C   0  0  0  0  0  0  0  0  0  0  0  0
    7.4953   14.6539   -0.7013 O   0  0  0  0  0  0  0  0  0  0  0  0
    8.6712   15.3055   -0.4471 C   0  0  0  0  0  0  0  0  0  0  0  0
    9.0304   16.6753   -0.5185 C   0  0  0  0  0  0  0  0  0  0  0  0
   10.3481   16.8630   -0.1649 C   0  0  0  0  0  0  0  0  0  0  0  0
   11.1179   18.1467   -0.1077 C   0  0  0  0  0  0  0  0  0  0  0  0
   11.1480   15.3420    0.2580 S   0  0  0  0  0  0  0  0  0  0  0  0
    9.6920   14.4432   -0.0449 C   0  0  0  0  0  0  0  0  0  0  0  0
    9.1024   13.1458   -0.0489 C   0  0  0  0  0  0  0  0  0  0  0  0
    9.3213   11.8059    0.1834 N   0  0  0  0  0  0  0  0  0  0  0  0
   10.5613   11.1984    0.6174 C   0  0  0  0  0  0  0  0  0  0  0  0
    8.1195   11.1559   -0.0791 C   0  0  0  0  0  0  0  0  0  0  0  0
    1.9007   -0.9970    0.6021 H   0  0  0  0  0  0  0  0  0  0  0  0
    3.4206   -1.8412    0.2227 H   0  0  0  0  0  0  0  0  0  0  0  0
    2.3956   -1.2151   -1.0904 H   0  0  0  0  0  0  0  0  0  0  0  0
    5.5267   -0.3414    0.6330 H   0  0  0  0  0  0  0  0  0  0  0  0
    9.3646    8.6028    0.6014 H   0  0  0  0  0  0  0  0  0  0  0  0
    4.5236    8.5409   -0.7821 H   0  0  0  0  0  0  0  0  0  0  0  0
    3.4433    6.4654   -1.7546 H   0  0  0  0  0  0  0  0  0  0  0  0
    2.9512    6.6646   -0.0435 H   0  0  0  0  0  0  0  0  0  0  0  0
    2.5677    5.1591   -0.9168 H   0  0  0  0  0  0  0  0  0  0  0  0
    8.3624   17.4850   -0.8129 H   0  0  0  0  0  0  0  0  0  0  0  0
   10.4679   18.9845   -0.4005 H   0  0  0  0  0  0  0  0  0  0  0  0
   11.9856   18.1405   -0.7894 H   0  0  0  0  0  0  0  0  0  0  0  0
   11.4998   18.3562    0.9061 H   0  0  0  0  0  0  0  0  0  0  0  0
   11.3217   11.9819    0.7331 H   0  0  0  0  0  0  0  0  0  0  0  0
   10.9302   10.4679   -0.1211 H   0  0  0  0  0  0  0  0  0  0  0  0
   10.4412   10.6898    1.5880 H   0  0  0  0  0  0  0  0  0  0  0  0
  1  2  1  0
  1 35  1  0
  1 36  1  0
  1 37  1  0
  2  3  2  0
  2 20  1  0
  3  4  1  0
  3 38  1  0
  4  5  1  0
  4 19  2  0
  5  6  1  0
  6  7  1  0
  6 18  2  0
  7  8  1  0
  7 15  2  0
  8  9  1  0
  9 10  1  0
  9 14  2  0
 10 11  2  0
 10 39  1  0
 11 12  1  0
 11 34  1  0
 12 13  2  0
 12 21  1  0
 13 14  1  0
 13 40  1  0
 14 15  1  0
 15 16  1  0
 16 17  1  0
 16 18  1  0
 17 41  1  0
 17 42  1  0
 17 43  1  0
 18 19  1  0
 19 20  1  0
 21 22  1  0
 22 23  1  0
 22 34  2  0
 23 24  1  0
 23 31  2  0
 24 25  1  0
 25 26  1  0
 25 30  2  0
 26 27  2  0
 26 44  1  0
 27 28  1  0
 27 29  1  0
 28 45  1  0
 28 46  1  0
 28 47  1  0
 29 30  1  0
 30 31  1  0
 31 32  1  0
 32 33  1  0
 32 34  1  0
 33 48  1  0
 33 49  1  0
 33 50  1  0
M  END

