
     RDKit          3D

 52 53  0  0  0  0  0  0  0  0999 V2000
    8.2414    5.0799    4.6264 C   0  0  0  0  0  0  0  0  0  0  0  0
    8.2551    3.6168    5.0345 C   0  0  0  0  0  0  0  0  0  0  0  0
    8.6245    2.7655    3.9332 O   0  0  0  0  0  0  0  0  0  0  0  0
    9.9265    2.5101    3.7289 C   0  0  0  0  0  0  0  0  0  0  0  0
   10.8135    2.9940    4.3955 O   0  0  0  0  0  0  0  0  0  0  0  0
   10.1565    1.5827    2.5763 C   0  0  0  0  0  0  0  0  0  0  0  0
   11.4957    1.4849    2.1573 C   0  0  0  0  0  0  0  0  0  0  0  0
   11.8729    0.6780    1.0898 C   0  0  0  0  0  0  0  0  0  0  0  0
   10.8891   -0.0512    0.4168 C   0  0  0  0  0  0  0  0  0  0  0  0
    9.5559    0.0221    0.8175 C   0  0  0  0  0  0  0  0  0  0  0  0
    9.1605    0.8232    1.9043 C   0  0  0  0  0  0  0  0  0  0  0  0
    7.4367    0.8923    2.4154 S   0  0  0  0  0  0  0  0  0  0  0  0
    6.7379   -0.5500    1.5964 C   0  0  0  0  0  0  0  0  0  0  0  0
    6.8995   -1.8277    2.1733 C   0  0  0  0  0  0  0  0  0  0  0  0
    7.7343   -2.0994    3.3913 C   0  0  0  0  0  0  0  0  0  0  0  0
    7.6150   -1.7232    4.6026 N   0  0  0  0  0  0  0  0  0  0  0  0
    6.3763   -0.6310    5.1273 S   0  0  0  0  0  0  0  0  0  0  0  0
    5.1644   -0.6476    4.2301 O   0  0  0  0  0  0  0  0  0  0  0  0
    5.8799   -1.6548    6.6599 C   0  0  1  0  0  0  0  0  0  0  0  0
    7.0877   -1.7420    7.5917 C   0  0  0  0  0  0  0  0  0  0  0  0
    4.7460   -0.8252    7.2761 C   0  0  0  0  0  0  0  0  0  0  0  0
    5.3738   -3.0162    6.1912 C   0  0  0  0  0  0  0  0  0  0  0  0
    6.3403   -2.9546    1.5532 C   0  0  0  0  0  0  0  0  0  0  0  0
    5.5564   -2.8059    0.4121 C   0  0  0  0  0  0  0  0  0  0  0  0
    4.7634   -4.3349   -0.3948 Br  0  0  0  0  0  0  0  0  0  0  0  0
    5.3512   -1.5460   -0.1489 C   0  0  0  0  0  0  0  0  0  0  0  0
    5.9496   -0.4239    0.4339 C   0  0  0  0  0  0  0  0  0  0  0  0
    5.7391    0.9231   -0.2429 C   0  0  1  0  0  0  0  0  0  0  0  0
    5.1142    1.7987    0.5526 F   0  0  0  0  0  0  0  0  0  0  0  0
    6.9071    1.4702   -0.6221 F   0  0  0  0  0  0  0  0  0  0  0  0
    4.9898    0.7980   -1.3545 F   0  0  0  0  0  0  0  0  0  0  0  0
    7.8789    5.6972    5.4641 H   0  0  0  0  0  0  0  0  0  0  0  0
    7.5747    5.2415    3.7654 H   0  0  0  0  0  0  0  0  0  0  0  0
    9.2532    5.4212    4.3623 H   0  0  0  0  0  0  0  0  0  0  0  0
    7.2535    3.2696    5.3260 H   0  0  0  0  0  0  0  0  0  0  0  0
    8.9558    3.4430    5.8640 H   0  0  0  0  0  0  0  0  0  0  0  0
   12.2315    2.0724    2.7093 H   0  0  0  0  0  0  0  0  0  0  0  0
   12.9190    0.6219    0.7813 H   0  0  0  0  0  0  0  0  0  0  0  0
   11.1547   -0.6824   -0.4353 H   0  0  0  0  0  0  0  0  0  0  0  0
    8.8094   -0.5478    0.2662 H   0  0  0  0  0  0  0  0  0  0  0  0
    8.5779   -2.7872    3.1992 H   0  0  0  0  0  0  0  0  0  0  0  0
    7.4688   -0.7415    7.8540 H   0  0  0  0  0  0  0  0  0  0  0  0
    7.9079   -2.3150    7.1384 H   0  0  0  0  0  0  0  0  0  0  0  0
    6.7888   -2.2396    8.5298 H   0  0  0  0  0  0  0  0  0  0  0  0
    5.0959    0.1723    7.5888 H   0  0  0  0  0  0  0  0  0  0  0  0
    4.3595   -1.3412    8.1700 H   0  0  0  0  0  0  0  0  0  0  0  0
    3.9189   -0.6956    6.5630 H   0  0  0  0  0  0  0  0  0  0  0  0
    6.1944   -3.6461    5.8172 H   0  0  0  0  0  0  0  0  0  0  0  0
    4.6266   -2.8916    5.3924 H   0  0  0  0  0  0  0  0  0  0  0  0
    4.8942   -3.5451    7.0318 H   0  0  0  0  0  0  0  0  0  0  0  0
    6.4971   -3.9462    1.9824 H   0  0  0  0  0  0  0  0  0  0  0  0
    4.7420   -1.4345   -1.0443 H   0  0  0  0  0  0  0  0  0  0  0  0
  1  2  1  0
  1 32  1  0
  1 33  1  0
  1 34  1  0
  2  3  1  0
  2 35  1  0
  2 36  1  0
  3  4  1  0
  4  5  2  0
  4  6  1  0
  6  7  2  0
  6 11  1  0
  7  8  1  0
  7 37  1  0
  8  9  2  0
  8 38  1  0
  9 10  1  0
  9 39  1  0
 10 11  2  0
 10 40  1  0
 11 12  1  0
 12 13  1  0
 13 14  2  0
 13 27  1  0
 14 15  1  0
 14 23  1  0
 15 16  2  0
 15 41  1  0
 16 17  1  0
 17 18  1  6
 17 19  1  0
 19 20  1  1
 19 21  1  0
 19 22  1  0
 20 42  1  0
 20 43  1  0
 20 44  1  0
 21 45  1  0
 21 46  1  0
 21 47  1  0
 22 48  1  0
 22 49  1  0
 22 50  1  0
 23 24  2  0
 23 51  1  0
 24 25  1  0
 24 26  1  0
 26 27  2  0
 26 52  1  0
 27 28  1  0
 28 29  1  1
 28 30  1  0
 28 31  1  0
M  CHG  2  17   1  18  -1
M  END

