
     RDKit          3D

 50 51  0  0  0  0  0  0  0  0999 V2000
    2.5203   -2.4766   -1.4455 C   0  0  0  0  0  0  0  0  0  0  0  0
    3.1545   -3.4554   -0.4749 C   0  0  0  0  0  0  0  0  0  0  0  0
    4.0932   -4.3546   -1.0110 C   0  0  0  0  0  0  0  0  0  0  0  0
    4.7787   -5.2798   -0.2254 C   0  0  0  0  0  0  0  0  0  0  0  0
    4.5203   -5.3282    1.1431 C   0  0  0  0  0  0  0  0  0  0  0  0
    3.5811   -4.4564    1.6944 C   0  0  0  0  0  0  0  0  0  0  0  0
    2.8866   -3.5117    0.9200 C   0  0  0  0  0  0  0  0  0  0  0  0
    1.9042   -2.5491    1.6195 C   0  0  1  0  0  0  0  0  0  0  0  0
    1.6160   -2.8848    3.0895 C   0  0  0  0  0  0  0  0  0  0  0  0
    2.4082   -1.1008    1.5424 C   0  0  0  0  0  0  0  0  0  0  0  0
    0.6248   -2.5075    0.9004 O   0  0  0  0  0  0  0  0  0  0  0  0
   -0.1140   -3.6170    0.7580 C   0  0  0  0  0  0  0  0  0  0  0  0
    0.1177   -4.6958    1.2477 O   0  0  0  0  0  0  0  0  0  0  0  0
   -1.1434   -3.2921   -0.0292 O   0  0  0  0  0  0  0  0  0  0  0  0
   -2.2059   -4.2396   -0.3814 C   0  0  1  0  0  0  0  0  0  0  0  0
   -1.5694   -5.3493   -1.2290 C   0  0  0  0  0  0  0  0  0  0  0  0
   -2.8647   -4.8389    0.8741 C   0  0  0  0  0  0  0  0  0  0  0  0
   -3.2324   -3.3858   -1.1531 C   0  0  0  0  0  0  0  0  0  0  0  0
   -3.8467   -3.9343   -2.2912 C   0  0  0  0  0  0  0  0  0  0  0  0
   -4.8295   -3.2530   -3.0120 C   0  0  0  0  0  0  0  0  0  0  0  0
   -5.2202   -1.9814   -2.6002 C   0  0  0  0  0  0  0  0  0  0  0  0
   -4.6219   -1.4218   -1.4712 C   0  0  0  0  0  0  0  0  0  0  0  0
   -3.6347   -2.0898   -0.7262 C   0  0  0  0  0  0  0  0  0  0  0  0
   -3.0614   -1.3550    0.4681 C   0  0  0  0  0  0  0  0  0  0  0  0
    2.5139   -2.9024   -2.4602 H   0  0  0  0  0  0  0  0  0  0  0  0
    3.1056   -1.5420   -1.5013 H   0  0  0  0  0  0  0  0  0  0  0  0
    1.4930   -2.2034   -1.1814 H   0  0  0  0  0  0  0  0  0  0  0  0
    4.2893   -4.3187   -2.0867 H   0  0  0  0  0  0  0  0  0  0  0  0
    5.5030   -5.9592   -0.6821 H   0  0  0  0  0  0  0  0  0  0  0  0
    5.0357   -6.0481    1.7838 H   0  0  0  0  0  0  0  0  0  0  0  0
    3.3826   -4.5277    2.7628 H   0  0  0  0  0  0  0  0  0  0  0  0
    2.5108   -2.7231    3.7075 H   0  0  0  0  0  0  0  0  0  0  0  0
    1.2701   -3.9170    3.2152 H   0  0  0  0  0  0  0  0  0  0  0  0
    0.8321   -2.2041    3.4541 H   0  0  0  0  0  0  0  0  0  0  0  0
    3.3710   -1.0187    2.0675 H   0  0  0  0  0  0  0  0  0  0  0  0
    1.6848   -0.4243    2.0225 H   0  0  0  0  0  0  0  0  0  0  0  0
    2.5496   -0.7696    0.5071 H   0  0  0  0  0  0  0  0  0  0  0  0
   -0.7667   -5.8265   -0.6532 H   0  0  0  0  0  0  0  0  0  0  0  0
   -1.1513   -4.9415   -2.1608 H   0  0  0  0  0  0  0  0  0  0  0  0
   -2.3042   -6.1257   -1.4827 H   0  0  0  0  0  0  0  0  0  0  0  0
   -2.1475   -5.4428    1.4444 H   0  0  0  0  0  0  0  0  0  0  0  0
   -3.7023   -5.4787    0.5591 H   0  0  0  0  0  0  0  0  0  0  0  0
   -3.2725   -4.0561    1.5284 H   0  0  0  0  0  0  0  0  0  0  0  0
   -3.5576   -4.9269   -2.6352 H   0  0  0  0  0  0  0  0  0  0  0  0
   -5.2806   -3.7197   -3.8914 H   0  0  0  0  0  0  0  0  0  0  0  0
   -5.9857   -1.4262   -3.1485 H   0  0  0  0  0  0  0  0  0  0  0  0
   -4.9295   -0.4241   -1.1452 H   0  0  0  0  0  0  0  0  0  0  0  0
   -3.6833   -0.4788    0.7042 H   0  0  0  0  0  0  0  0  0  0  0  0
   -2.0356   -1.0096    0.2728 H   0  0  0  0  0  0  0  0  0  0  0  0
   -3.0076   -1.9798    1.3705 H   0  0  0  0  0  0  0  0  0  0  0  0
  1  2  1  0
  1 25  1  0
  1 26  1  0
  1 27  1  0
  2  3  2  0
  2  7  1  0
  3  4  1  0
  3 28  1  0
  4  5  2  0
  4 29  1  0
  5  6  1  0
  5 30  1  0
  6  7  2  0
  6 31  1  0
  7  8  1  0
  8  9  1  0
  8 10  1  0
  8 11  1  6
  9 32  1  0
  9 33  1  0
  9 34  1  0
 10 35  1  0
 10 36  1  0
 10 37  1  0
 11 12  1  0
 12 13  2  0
 12 14  1  0
 15 14  1  1
 15 16  1  0
 15 17  1  0
 15 18  1  0
 16 38  1  0
 16 39  1  0
 16 40  1  0
 17 41  1  0
 17 42  1  0
 17 43  1  0
 18 19  2  0
 18 23  1  0
 19 20  1  0
 19 44  1  0
 20 21  2  0
 20 45  1  0
 21 22  1  0
 21 46  1  0
 22 23  2  0
 22 47  1  0
 23 24  1  0
 24 48  1  0
 24 49  1  0
 24 50  1  0
M  END

