
     RDKit          3D

 42 43  0  0  0  0  0  0  0  0999 V2000
    0.7875   -0.7683    2.5476 C   0  0  0  0  0  0  0  0  0  0  0  0
    2.1495   -0.4996    1.9363 C   0  0  0  0  0  0  0  0  0  0  0  0
    3.0411   -0.1535    2.9826 O   0  0  0  0  0  0  0  0  0  0  0  0
    4.3370    0.1386    2.6968 C   0  0  0  0  0  0  0  0  0  0  0  0
    4.8932    0.1236    1.4064 C   0  0  0  0  0  0  0  0  0  0  0  0
    6.2422    0.4428    1.2292 C   0  0  0  0  0  0  0  0  0  0  0  0
    7.0736    0.7815    2.3055 C   0  0  0  0  0  0  0  0  0  0  0  0
    8.5475    1.1277    2.0560 C   0  0  1  0  0  0  0  0  0  0  0  0
    9.2540    1.7838    3.1549 N   0  0  0  0  0  0  0  0  0  0  0  0
    9.3695   -0.0847    1.6178 C   0  0  0  0  0  0  0  0  0  0  0  0
    9.1550   -1.3451    2.1895 C   0  0  0  0  0  0  0  0  0  0  0  0
    9.9549   -2.4468    1.8498 C   0  0  0  0  0  0  0  0  0  0  0  0
    9.8023   -3.6999    2.3655 O   0  0  0  0  0  0  0  0  0  0  0  0
    8.7762   -3.9345    3.2989 C   0  0  0  0  0  0  0  0  0  0  0  0
   10.9831   -2.2752    0.9161 C   0  0  0  0  0  0  0  0  0  0  0  0
   11.2065   -1.0277    0.3333 C   0  0  0  0  0  0  0  0  0  0  0  0
   10.4100    0.0753    0.6786 C   0  0  0  0  0  0  0  0  0  0  0  0
   10.5677    1.3200    0.1441 O   0  0  0  0  0  0  0  0  0  0  0  0
   11.6020    1.5506   -0.7796 C   0  0  0  0  0  0  0  0  0  0  0  0
    6.4978    0.7981    3.5848 C   0  0  0  0  0  0  0  0  0  0  0  0
    5.1547    0.4805    3.7847 C   0  0  0  0  0  0  0  0  0  0  0  0
    0.0641   -1.0413    1.7637 H   0  0  0  0  0  0  0  0  0  0  0  0
    0.4140    0.1248    3.0716 H   0  0  0  0  0  0  0  0  0  0  0  0
    0.8435   -1.5938    3.2737 H   0  0  0  0  0  0  0  0  0  0  0  0
    2.0913    0.3236    1.1986 H   0  0  0  0  0  0  0  0  0  0  0  0
    2.5208   -1.3943    1.4005 H   0  0  0  0  0  0  0  0  0  0  0  0
    4.2874   -0.1309    0.5363 H   0  0  0  0  0  0  0  0  0  0  0  0
    6.6587    0.4222    0.2174 H   0  0  0  0  0  0  0  0  0  0  0  0
    8.5680    1.8346    1.2116 H   0  0  0  0  0  0  0  0  0  0  0  0
    9.3631    1.1543    3.9496 H   0  0  0  0  0  0  0  0  0  0  0  0
    8.7438    2.6050    3.4800 H   0  0  0  0  0  0  0  0  0  0  0  0
    8.3359   -1.4539    2.9004 H   0  0  0  0  0  0  0  0  0  0  0  0
    8.8344   -4.9977    3.5705 H   0  0  0  0  0  0  0  0  0  0  0  0
    7.7751   -3.7290    2.8770 H   0  0  0  0  0  0  0  0  0  0  0  0
    8.9007   -3.3273    4.2148 H   0  0  0  0  0  0  0  0  0  0  0  0
   11.5997   -3.1363    0.6505 H   0  0  0  0  0  0  0  0  0  0  0  0
   12.0116   -0.9252   -0.3945 H   0  0  0  0  0  0  0  0  0  0  0  0
   11.5447    2.6122   -1.0573 H   0  0  0  0  0  0  0  0  0  0  0  0
   11.4889    0.9377   -1.6934 H   0  0  0  0  0  0  0  0  0  0  0  0
   12.5979    1.3510   -0.3433 H   0  0  0  0  0  0  0  0  0  0  0  0
    7.1096    1.0739    4.4470 H   0  0  0  0  0  0  0  0  0  0  0  0
    4.7108    0.4960    4.7825 H   0  0  0  0  0  0  0  0  0  0  0  0
  1  2  1  0
  1 22  1  0
  1 23  1  0
  1 24  1  0
  2  3  1  0
  2 25  1  0
  2 26  1  0
  3  4  1  0
  4  5  2  0
  4 21  1  0
  5  6  1  0
  5 27  1  0
  6  7  2  0
  6 28  1  0
  7  8  1  0
  7 20  1  0
  8  9  1  0
  8 10  1  0
  8 29  1  6
  9 30  1  0
  9 31  1  0
 10 11  2  0
 10 17  1  0
 11 12  1  0
 11 32  1  0
 12 13  1  0
 12 15  2  0
 13 14  1  0
 14 33  1  0
 14 34  1  0
 14 35  1  0
 15 16  1  0
 15 36  1  0
 16 17  2  0
 16 37  1  0
 17 18  1  0
 18 19  1  0
 19 38  1  0
 19 39  1  0
 19 40  1  0
 20 21  2  0
 20 41  1  0
 21 42  1  0
M  END

