
     RDKit          3D

 42 41  0  0  0  0  0  0  0  0999 V2000
    1.4516   -0.3526    0.9294 C   0  0  0  0  0  0  0  0  0  0  0  0
    2.8461   -0.3649    0.3768 C   0  0  0  0  0  0  0  0  0  0  0  0
    3.2222   -0.5457   -0.9088 C   0  0  0  0  0  0  0  0  0  0  0  0
    2.2937   -0.8153   -2.0335 C   0  0  0  0  0  0  0  0  0  0  0  0
    1.4787   -1.8934   -2.2053 C   0  0  0  0  0  0  0  0  0  0  0  0
    0.6280   -2.0142   -3.2939 N   0  0  0  0  0  0  0  0  0  0  0  0
    0.6187   -1.0809   -4.3912 C   0  0  0  0  0  0  0  0  0  0  0  0
    1.4381   -3.0848   -1.2535 C   0  0  1  0  0  0  0  0  0  0  0  0
    0.0219   -3.3859   -0.7338 C   0  0  0  0  0  0  0  0  0  0  0  0
    2.0675   -4.3350   -1.9000 C   0  0  0  0  0  0  0  0  0  0  0  0
    4.6940   -0.4280   -1.2854 C   0  0  0  0  0  0  0  0  0  0  0  0
    5.0427    0.7294   -2.2417 C   0  0  0  0  0  0  0  0  0  0  0  0
    4.7672    2.1258   -1.6780 C   0  0  0  0  0  0  0  0  0  0  0  0
    5.1444    3.2617   -2.6343 C   0  0  0  0  0  0  0  0  0  0  0  0
    4.8716    4.6558   -2.0674 C   0  0  0  0  0  0  0  0  0  0  0  0
    1.2466   -1.2391    1.5580 H   0  0  0  0  0  0  0  0  0  0  0  0
    0.6964   -0.3253    0.1305 H   0  0  0  0  0  0  0  0  0  0  0  0
    1.3000    0.5256    1.5813 H   0  0  0  0  0  0  0  0  0  0  0  0
    3.6439   -0.1828    1.1088 H   0  0  0  0  0  0  0  0  0  0  0  0
    2.3375   -0.0875   -2.8501 H   0  0  0  0  0  0  0  0  0  0  0  0
    0.3406   -2.9573   -3.5206 H   0  0  0  0  0  0  0  0  0  0  0  0
    0.3507   -0.0691   -4.0414 H   0  0  0  0  0  0  0  0  0  0  0  0
   -0.1366   -1.3913   -5.1279 H   0  0  0  0  0  0  0  0  0  0  0  0
    1.5966   -0.9996   -4.9097 H   0  0  0  0  0  0  0  0  0  0  0  0
    2.0668   -2.8157   -0.3942 H   0  0  0  0  0  0  0  0  0  0  0  0
   -0.6565   -3.6979   -1.5448 H   0  0  0  0  0  0  0  0  0  0  0  0
   -0.4257   -2.5044   -0.2512 H   0  0  0  0  0  0  0  0  0  0  0  0
    0.0476   -4.2027    0.0057 H   0  0  0  0  0  0  0  0  0  0  0  0
    1.4838   -4.6980   -2.7639 H   0  0  0  0  0  0  0  0  0  0  0  0
    2.1146   -5.1632   -1.1745 H   0  0  0  0  0  0  0  0  0  0  0  0
    3.0908   -4.1295   -2.2502 H   0  0  0  0  0  0  0  0  0  0  0  0
    5.0135   -1.3721   -1.7630 H   0  0  0  0  0  0  0  0  0  0  0  0
    5.2937   -0.3199   -0.3651 H   0  0  0  0  0  0  0  0  0  0  0  0
    4.4977    0.6027   -3.1942 H   0  0  0  0  0  0  0  0  0  0  0  0
    6.1134    0.6494   -2.5034 H   0  0  0  0  0  0  0  0  0  0  0  0
    5.3207    2.2502   -0.7280 H   0  0  0  0  0  0  0  0  0  0  0  0
    3.6989    2.2121   -1.4105 H   0  0  0  0  0  0  0  0  0  0  0  0
    4.5911    3.1355   -3.5832 H   0  0  0  0  0  0  0  0  0  0  0  0
    6.2141    3.1750   -2.9002 H   0  0  0  0  0  0  0  0  0  0  0  0
    3.8034    4.7880   -1.8261 H   0  0  0  0  0  0  0  0  0  0  0  0
    5.1520    5.4474   -2.7808 H   0  0  0  0  0  0  0  0  0  0  0  0
    5.4407    4.8288   -1.1383 H   0  0  0  0  0  0  0  0  0  0  0  0
  1  2  1  0
  1 16  1  0
  1 17  1  0
  1 18  1  0
  2  3  2  0
  2 19  1  0
  3  4  1  0
  3 11  1  0
  4  5  2  0
  4 20  1  0
  5  6  1  0
  5  8  1  0
  6  7  1  0
  6 21  1  0
  7 22  1  0
  7 23  1  0
  7 24  1  0
  8  9  1  0
  8 10  1  0
  8 25  1  1
  9 26  1  0
  9 27  1  0
  9 28  1  0
 10 29  1  0
 10 30  1  0
 10 31  1  0
 11 12  1  0
 11 32  1  0
 11 33  1  0
 12 13  1  0
 12 34  1  0
 12 35  1  0
 13 14  1  0
 13 36  1  0
 13 37  1  0
 14 15  1  0
 14 38  1  0
 14 39  1  0
 15 40  1  0
 15 41  1  0
 15 42  1  0
M  END

