
     RDKit          3D

 34 35  0  0  0  0  0  0  0  0999 V2000
    2.7406    0.0831    1.3678 C   0  0  0  0  0  0  0  0  0  0  0  0
    2.0312   -0.1344    0.1724 O   0  0  0  0  0  0  0  0  0  0  0  0
    2.6422   -1.0016   -0.7643 C   0  0  1  0  0  0  0  0  0  0  0  0
    3.7412   -0.8567   -0.7743 H   0  0  0  0  0  0  0  0  0  0  0  0
    2.3388   -2.4633   -0.3977 C   0  0  0  0  0  0  0  0  0  0  0  0
    2.8304   -3.4000   -1.3259 O   0  0  0  0  0  0  0  0  0  0  0  0
    2.1508   -3.4319   -2.5640 C   0  0  0  0  0  0  0  0  0  0  0  0
    2.7634   -2.5344   -3.6317 C   0  0  0  0  0  0  0  0  0  0  0  0
    2.8530   -1.1122   -3.2731 N   0  0  0  0  0  0  0  0  0  0  0  0
    3.4682   -0.3269   -4.2248 C   0  0  0  0  0  0  0  0  0  0  0  0
    3.8272   -0.8012   -5.2934 O   0  0  0  0  0  0  0  0  0  0  0  0
    3.7196    1.1378   -3.9457 C   0  0  0  0  0  0  0  0  0  0  0  0
    4.3402    1.6056   -2.7764 C   0  0  0  0  0  0  0  0  0  0  0  0
    4.6523    2.9615   -2.6388 C   0  0  0  0  0  0  0  0  0  0  0  0
    4.3431    3.8683   -3.6549 C   0  0  0  0  0  0  0  0  0  0  0  0
    3.7356    3.3864   -4.8137 C   0  0  0  0  0  0  0  0  0  0  0  0
    3.4418    4.2469   -5.7989 F   0  0  0  0  0  0  0  0  0  0  0  0
    3.4343    2.0395   -4.9818 C   0  0  0  0  0  0  0  0  0  0  0  0
    2.0958   -0.5906   -2.1433 C   0  0  0  0  0  0  0  0  0  0  0  0
    2.1705    0.8140    1.9596 H   0  0  0  0  0  0  0  0  0  0  0  0
    3.7505    0.4974    1.1761 H   0  0  0  0  0  0  0  0  0  0  0  0
    2.8575   -0.8348    1.9749 H   0  0  0  0  0  0  0  0  0  0  0  0
    1.2401   -2.5597   -0.2749 H   0  0  0  0  0  0  0  0  0  0  0  0
    2.8038   -2.7127    0.5684 H   0  0  0  0  0  0  0  0  0  0  0  0
    1.0761   -3.2104   -2.4176 H   0  0  0  0  0  0  0  0  0  0  0  0
    2.2126   -4.4658   -2.9418 H   0  0  0  0  0  0  0  0  0  0  0  0
    2.1832   -2.6516   -4.5657 H   0  0  0  0  0  0  0  0  0  0  0  0
    3.7790   -2.8875   -3.8675 H   0  0  0  0  0  0  0  0  0  0  0  0
    4.6031    0.9084   -1.9793 H   0  0  0  0  0  0  0  0  0  0  0  0
    5.1459    3.3167   -1.7309 H   0  0  0  0  0  0  0  0  0  0  0  0
    4.5703    4.9327   -3.5701 H   0  0  0  0  0  0  0  0  0  0  0  0
    2.9939    1.6911   -5.9171 H   0  0  0  0  0  0  0  0  0  0  0  0
    1.0347   -0.8895   -2.2188 H   0  0  0  0  0  0  0  0  0  0  0  0
    2.1057    0.5039   -2.1796 H   0  0  0  0  0  0  0  0  0  0  0  0
  1  2  1  0
  1 20  1  0
  1 21  1  0
  1 22  1  0
  2  3  1  0
  3  4  1  6
  3  5  1  0
  3 19  1  0
  5  6  1  0
  5 23  1  0
  5 24  1  0
  6  7  1  0
  7  8  1  0
  7 25  1  0
  7 26  1  0
  8  9  1  0
  8 27  1  0
  8 28  1  0
  9 10  1  0
  9 19  1  0
 10 11  2  0
 10 12  1  0
 12 13  2  0
 12 18  1  0
 13 14  1  0
 13 29  1  0
 14 15  2  0
 14 30  1  0
 15 16  1  0
 15 31  1  0
 16 17  1  0
 16 18  2  0
 18 32  1  0
 19 33  1  0
 19 34  1  0
M  END

