
     RDKit          3D

 42 44  0  0  0  0  0  0  0  0999 V2000
    1.2717   -0.2489    0.4177 N   0  0  0  0  0  0  0  0  0  0  0  0
    2.5592   -0.0237   -0.0568 C   0  0  0  0  0  0  0  0  0  0  0  0
    3.1158    1.2702   -0.0106 C   0  0  0  0  0  0  0  0  0  0  0  0
    4.4200    1.5110   -0.4396 C   0  0  0  0  0  0  0  0  0  0  0  0
    5.2077    0.4648   -0.9284 C   0  0  0  0  0  0  0  0  0  0  0  0
    4.6654   -0.8218   -0.9733 C   0  0  0  0  0  0  0  0  0  0  0  0
    3.3587   -1.0921   -0.5466 C   0  0  0  0  0  0  0  0  0  0  0  0
    2.8806   -2.4401   -0.6207 N   0  0  0  0  0  0  0  0  0  0  0  0
    1.9551   -2.7813   -1.6936 C   0  0  0  0  0  0  0  0  0  0  0  0
    1.9371   -4.3037   -1.8992 C   0  0  0  0  0  0  0  0  0  0  0  0
    1.6757   -5.0565   -0.6786 N   0  0  0  0  0  0  0  0  0  0  0  0
    0.2792   -5.1522   -0.2729 C   0  0  0  0  0  0  0  0  0  0  0  0
    0.0088   -6.3214    0.6587 C   0  0  0  0  0  0  0  0  0  0  0  0
   -0.8337   -6.1878    1.7681 C   0  0  0  0  0  0  0  0  0  0  0  0
   -1.1259   -7.2772    2.5956 C   0  0  0  0  0  0  0  0  0  0  0  0
   -0.5657   -8.5316    2.3250 C   0  0  0  0  0  0  0  0  0  0  0  0
   -0.8070   -9.6279    3.0926 O   0  0  0  0  0  0  0  0  0  0  0  0
    0.2888   -8.6792    1.2209 C   0  0  0  0  0  0  0  0  0  0  0  0
    0.5673   -7.5862    0.4048 C   0  0  0  0  0  0  0  0  0  0  0  0
    2.6127   -4.6666    0.3737 C   0  0  0  0  0  0  0  0  0  0  0  0
    2.6394   -3.1532    0.6321 C   0  0  0  0  0  0  0  0  0  0  0  0
    0.6760    0.5689    0.4785 H   0  0  0  0  0  0  0  0  0  0  0  0
    0.7911   -1.0588    0.0470 H   0  0  0  0  0  0  0  0  0  0  0  0
    2.5051    2.0950    0.3696 H   0  0  0  0  0  0  0  0  0  0  0  0
    4.8207    2.5272   -0.3924 H   0  0  0  0  0  0  0  0  0  0  0  0
    6.2301    0.6469   -1.2668 H   0  0  0  0  0  0  0  0  0  0  0  0
    5.2522   -1.6658   -1.3436 H   0  0  0  0  0  0  0  0  0  0  0  0
    2.2861   -2.2854   -2.6197 H   0  0  0  0  0  0  0  0  0  0  0  0
    0.9111   -2.4283   -1.5041 H   0  0  0  0  0  0  0  0  0  0  0  0
    2.9294   -4.6046   -2.2811 H   0  0  0  0  0  0  0  0  0  0  0  0
    1.1894   -4.5747   -2.6627 H   0  0  0  0  0  0  0  0  0  0  0  0
   -0.3120   -5.2888   -1.1966 H   0  0  0  0  0  0  0  0  0  0  0  0
   -0.1213   -4.2292    0.2016 H   0  0  0  0  0  0  0  0  0  0  0  0
   -1.2756   -5.2133    1.9975 H   0  0  0  0  0  0  0  0  0  0  0  0
   -1.7860   -7.1490    3.4599 H   0  0  0  0  0  0  0  0  0  0  0  0
   -1.4048   -9.3895    3.8131 H   0  0  0  0  0  0  0  0  0  0  0  0
    0.7238   -9.6614    1.0233 H   0  0  0  0  0  0  0  0  0  0  0  0
    1.2430   -7.6981   -0.4464 H   0  0  0  0  0  0  0  0  0  0  0  0
    3.6249   -4.9836    0.0658 H   0  0  0  0  0  0  0  0  0  0  0  0
    2.3629   -5.2073    1.2998 H   0  0  0  0  0  0  0  0  0  0  0  0
    3.4540   -2.9148    1.3338 H   0  0  0  0  0  0  0  0  0  0  0  0
    1.6956   -2.8391    1.1312 H   0  0  0  0  0  0  0  0  0  0  0  0
  1  2  1  0
  1 22  1  0
  1 23  1  0
  2  3  2  0
  2  7  1  0
  3  4  1  0
  3 24  1  0
  4  5  2  0
  4 25  1  0
  5  6  1  0
  5 26  1  0
  6  7  2  0
  6 27  1  0
  7  8  1  0
  8  9  1  0
  8 21  1  0
  9 10  1  0
  9 28  1  0
  9 29  1  0
 10 11  1  0
 10 30  1  0
 10 31  1  0
 11 12  1  0
 11 20  1  0
 12 13  1  0
 12 32  1  0
 12 33  1  0
 13 14  2  0
 13 19  1  0
 14 15  1  0
 14 34  1  0
 15 16  2  0
 15 35  1  0
 16 17  1  0
 16 18  1  0
 17 36  1  0
 18 19  2  0
 18 37  1  0
 19 38  1  0
 20 21  1  0
 20 39  1  0
 20 40  1  0
 21 41  1  0
 21 42  1  0
M  END

