
     RDKit          3D

 37 39  0  0  0  0  0  0  0  0999 V2000
    1.0342   -0.2283    1.2352 C   0  0  0  0  0  0  0  0  0  0  0  0
    2.5059   -0.5491    1.0026 C   0  0  1  0  0  0  0  0  0  0  0  0
    2.7466   -1.2659   -0.3265 C   0  0  0  0  0  0  0  0  0  0  0  0
    3.1937    0.7009    1.0411 O   0  0  0  0  0  0  0  0  0  0  0  0
    4.5312    0.7721    1.3090 C   0  0  0  0  0  0  0  0  0  0  0  0
    5.0733    2.0828    1.2458 C   0  0  0  0  0  0  0  0  0  0  0  0
    6.4129    2.3308    1.5117 C   0  0  0  0  0  0  0  0  0  0  0  0
    7.2271    1.2396    1.8518 C   0  0  0  0  0  0  0  0  0  0  0  0
    6.7103   -0.0838    1.9080 C   0  0  0  0  0  0  0  0  0  0  0  0
    7.8085   -0.9397    2.2644 C   0  0  0  0  0  0  0  0  0  0  0  0
    8.9131   -0.1338    2.4108 C   0  0  0  0  0  0  0  0  0  0  0  0
    8.5752    1.1850    2.1785 N   0  0  0  0  0  0  0  0  0  0  0  0
    9.4878    2.3098    2.1981 C   0  0  0  0  0  0  0  0  0  0  0  0
    9.9645    2.7066    0.8111 C   0  0  0  0  0  0  0  0  0  0  0  0
    9.4717    3.8340    0.2871 N   0  0  0  0  0  0  0  0  0  0  0  0
    9.8725    4.1524   -0.9467 C   0  0  0  0  0  0  0  0  0  0  0  0
   10.7631    3.3550   -1.6653 C   0  0  0  0  0  0  0  0  0  0  0  0
   11.2215    2.2036   -1.0195 C   0  0  0  0  0  0  0  0  0  0  0  0
   10.8299    1.8793    0.2121 N   0  0  0  0  0  0  0  0  0  0  0  0
    5.3443   -0.3146    1.6337 C   0  0  0  0  0  0  0  0  0  0  0  0
    0.4307   -1.1492    1.2353 H   0  0  0  0  0  0  0  0  0  0  0  0
    0.6578    0.4358    0.4409 H   0  0  0  0  0  0  0  0  0  0  0  0
    0.8982    0.2813    2.2008 H   0  0  0  0  0  0  0  0  0  0  0  0
    2.8619   -1.1842    1.8352 H   0  0  0  0  0  0  0  0  0  0  0  0
    2.3735   -0.6502   -1.1605 H   0  0  0  0  0  0  0  0  0  0  0  0
    2.2197   -2.2334   -0.3461 H   0  0  0  0  0  0  0  0  0  0  0  0
    3.8167   -1.4561   -0.4955 H   0  0  0  0  0  0  0  0  0  0  0  0
    4.3954    2.8952    0.9767 H   0  0  0  0  0  0  0  0  0  0  0  0
    6.8171    3.3422    1.4350 H   0  0  0  0  0  0  0  0  0  0  0  0
    7.7829   -2.0188    2.4024 H   0  0  0  0  0  0  0  0  0  0  0  0
    9.9387   -0.3939    2.6660 H   0  0  0  0  0  0  0  0  0  0  0  0
   10.3597    2.0296    2.8065 H   0  0  0  0  0  0  0  0  0  0  0  0
    8.9974    3.1761    2.6644 H   0  0  0  0  0  0  0  0  0  0  0  0
    9.4669    5.0765   -1.3753 H   0  0  0  0  0  0  0  0  0  0  0  0
   11.0865    3.6172   -2.6743 H   0  0  0  0  0  0  0  0  0  0  0  0
   11.9297    1.5249   -1.5100 H   0  0  0  0  0  0  0  0  0  0  0  0
    4.9531   -1.3309    1.6784 H   0  0  0  0  0  0  0  0  0  0  0  0
  1  2  1  0
  1 21  1  0
  1 22  1  0
  1 23  1  0
  2  3  1  0
  2  4  1  0
  2 24  1  1
  3 25  1  0
  3 26  1  0
  3 27  1  0
  4  5  1  0
  5  6  2  0
  5 20  1  0
  6  7  1  0
  6 28  1  0
  7  8  2  0
  7 29  1  0
  8  9  1  0
  8 12  1  0
  9 10  1  0
  9 20  2  0
 10 11  2  0
 10 30  1  0
 11 12  1  0
 11 31  1  0
 12 13  1  0
 13 14  1  0
 13 32  1  0
 13 33  1  0
 14 15  2  0
 14 19  1  0
 15 16  1  0
 16 17  2  0
 16 34  1  0
 17 18  1  0
 17 35  1  0
 18 19  2  0
 18 36  1  0
 20 37  1  0
M  END

