
     RDKit          3D

 33 34  0  0  0  0  0  0  0  0999 V2000
    3.0419    1.1235    0.8813 C   0  0  0  0  0  0  0  0  0  0  0  0
    2.3327    0.8999   -0.3520 N   0  0  0  0  0  0  0  0  0  0  0  0
    2.9359    0.6786   -1.5671 C   0  0  0  0  0  0  0  0  0  0  0  0
    4.3405    0.5814   -1.6978 C   0  0  0  0  0  0  0  0  0  0  0  0
    4.9249    0.3466   -2.9425 C   0  0  0  0  0  0  0  0  0  0  0  0
    4.1215    0.2133   -4.0724 C   0  0  0  0  0  0  0  0  0  0  0  0
    4.7147    0.0390   -5.3352 O   0  0  0  0  0  0  0  0  0  0  0  0
    5.0283   -1.5046   -5.7725 S   0  0  1  0  0  0  0  0  0  0  0  0
    6.1317   -2.0405   -4.9955 O   0  0  0  0  0  0  0  0  0  0  0  0
    3.7895   -2.2518   -5.9057 O   0  0  0  0  0  0  0  0  0  0  0  0
    5.5614   -1.0308   -7.2499 O   0  0  0  0  0  0  0  0  0  0  0  0
    6.0871   -2.0385   -8.0695 C   0  0  0  0  0  0  0  0  0  0  0  0
    5.2292   -2.8205   -8.8417 C   0  0  0  0  0  0  0  0  0  0  0  0
    5.7673   -3.7813   -9.6997 C   0  0  0  0  0  0  0  0  0  0  0  0
    7.1569   -3.9583   -9.7818 C   0  0  0  0  0  0  0  0  0  0  0  0
    7.7311   -4.8741  -10.6013 O   0  0  0  0  0  0  0  0  0  0  0  0
    8.0068   -3.1658   -8.9933 C   0  0  0  0  0  0  0  0  0  0  0  0
    7.4718   -2.2097   -8.1339 C   0  0  0  0  0  0  0  0  0  0  0  0
    2.7309    0.2997   -3.9726 C   0  0  0  0  0  0  0  0  0  0  0  0
    2.1462    0.5335   -2.7340 C   0  0  0  0  0  0  0  0  0  0  0  0
    2.3157    1.2786    1.6913 H   0  0  0  0  0  0  0  0  0  0  0  0
    3.6993    2.0139    0.8422 H   0  0  0  0  0  0  0  0  0  0  0  0
    3.6713    0.2586    1.1608 H   0  0  0  0  0  0  0  0  0  0  0  0
    1.3310    1.0292   -0.3528 H   0  0  0  0  0  0  0  0  0  0  0  0
    4.9836    0.6882   -0.8239 H   0  0  0  0  0  0  0  0  0  0  0  0
    6.0086    0.2665   -3.0439 H   0  0  0  0  0  0  0  0  0  0  0  0
    4.1511   -2.6732   -8.7650 H   0  0  0  0  0  0  0  0  0  0  0  0
    5.1015   -4.3981  -10.3114 H   0  0  0  0  0  0  0  0  0  0  0  0
    7.0454   -5.3574  -11.0806 H   0  0  0  0  0  0  0  0  0  0  0  0
    9.0851   -3.3185   -9.0668 H   0  0  0  0  0  0  0  0  0  0  0  0
    8.1158   -1.5899   -7.5081 H   0  0  0  0  0  0  0  0  0  0  0  0
    2.1203    0.1815   -4.8692 H   0  0  0  0  0  0  0  0  0  0  0  0
    1.0574    0.6027   -2.6562 H   0  0  0  0  0  0  0  0  0  0  0  0
  1  2  1  0
  1 21  1  0
  1 22  1  0
  1 23  1  0
  2  3  1  0
  2 24  1  0
  3  4  2  0
  3 20  1  0
  4  5  1  0
  4 25  1  0
  5  6  2  0
  5 26  1  0
  6  7  1  0
  6 19  1  0
  8  7  1  1
  8  9  2  0
  8 10  2  0
  8 11  1  0
 11 12  1  0
 12 13  2  0
 12 18  1  0
 13 14  1  0
 13 27  1  0
 14 15  2  0
 14 28  1  0
 15 16  1  0
 15 17  1  0
 16 29  1  0
 17 18  2  0
 17 30  1  0
 18 31  1  0
 19 20  2  0
 19 32  1  0
 20 33  1  0
M  END

