
     RDKit          3D

 48 50  0  0  0  0  0  0  0  0999 V2000
    1.5170   -0.3870   -0.1839 C   0  0  0  0  0  0  0  0  0  0  0  0
    3.3036    0.2051   -0.0340 Si  0  0  1  0  0  4  0  0  0  0  0  0
    3.7245    0.5812    1.7676 C   0  0  0  0  0  0  0  0  0  0  0  0
    4.4888   -1.0860   -0.7354 C   0  0  0  0  0  0  0  0  0  0  0  0
    3.4891    1.7642   -1.0165 C   0  0  0  0  0  0  0  0  0  0  0  0
    3.6111    2.7949   -1.6660 C   0  0  0  0  0  0  0  0  0  0  0  0
    3.7532    3.9973   -2.4235 C   0  0  0  0  0  0  0  0  0  0  0  0
    3.1992    5.2120   -1.9620 C   0  0  0  0  0  0  0  0  0  0  0  0
    3.3371    6.3821   -2.6983 C   0  0  0  0  0  0  0  0  0  0  0  0
    4.0355    6.3839   -3.9268 C   0  0  0  0  0  0  0  0  0  0  0  0
    4.1774    7.5836   -4.6824 C   0  0  0  0  0  0  0  0  0  0  0  0
    4.2990    8.6118   -5.3298 C   0  0  0  0  0  0  0  0  0  0  0  0
    4.4398    9.8067   -6.0824 C   0  0  0  0  0  0  0  0  0  0  0  0
    3.9002   11.0425   -5.6573 C   0  0  0  0  0  0  0  0  0  0  0  0
    4.0293   12.1593   -6.3561 N   0  0  0  0  0  0  0  0  0  0  0  0
    4.7084   12.0858   -7.5175 C   0  0  0  0  0  0  0  0  0  0  0  0
    4.8504   13.2917   -8.2768 C   0  0  0  0  0  0  0  0  0  0  0  0
    4.9713   14.3182   -8.9229 C   0  0  0  0  0  0  0  0  0  0  0  0
    5.1122   15.5198   -9.6793 C   0  0  0  0  0  0  0  0  0  0  0  0
    5.8099   15.5166  -10.9072 C   0  0  0  0  0  0  0  0  0  0  0  0
    5.9450   16.6932  -11.6424 C   0  0  0  0  0  0  0  0  0  0  0  0
    5.3901   17.8879  -11.1699 C   0  0  0  0  0  0  0  0  0  0  0  0
    4.6967   17.9022   -9.9544 C   0  0  0  0  0  0  0  0  0  0  0  0
    4.5563   16.7309   -9.2118 C   0  0  0  0  0  0  0  0  0  0  0  0
    5.2640   10.9659   -8.0201 N   0  0  0  0  0  0  0  0  0  0  0  0
    5.1304    9.8536   -7.3152 C   0  0  0  0  0  0  0  0  0  0  0  0
    4.5898    5.1689   -4.3890 C   0  0  0  0  0  0  0  0  0  0  0  0
    4.4511    3.9996   -3.6517 C   0  0  0  0  0  0  0  0  0  0  0  0
    1.3659   -1.3166    0.3903 H   0  0  0  0  0  0  0  0  0  0  0  0
    1.2521   -0.5891   -1.2342 H   0  0  0  0  0  0  0  0  0  0  0  0
    0.8142    0.3688    0.2021 H   0  0  0  0  0  0  0  0  0  0  0  0
    3.6248   -0.3253    2.3881 H   0  0  0  0  0  0  0  0  0  0  0  0
    3.0522    1.3507    2.1803 H   0  0  0  0  0  0  0  0  0  0  0  0
    4.7588    0.9484    1.8659 H   0  0  0  0  0  0  0  0  0  0  0  0
    4.4084   -2.0333   -0.1760 H   0  0  0  0  0  0  0  0  0  0  0  0
    5.5338   -0.7421   -0.6723 H   0  0  0  0  0  0  0  0  0  0  0  0
    4.2655   -1.2969   -1.7937 H   0  0  0  0  0  0  0  0  0  0  0  0
    2.6574    5.2232   -1.0143 H   0  0  0  0  0  0  0  0  0  0  0  0
    2.9040    7.3141   -2.3299 H   0  0  0  0  0  0  0  0  0  0  0  0
    3.3478   11.1016   -4.7122 H   0  0  0  0  0  0  0  0  0  0  0  0
    6.2409   14.5818  -11.2713 H   0  0  0  0  0  0  0  0  0  0  0  0
    6.4870   16.6793  -12.5914 H   0  0  0  0  0  0  0  0  0  0  0  0
    5.4982   18.8083  -11.7493 H   0  0  0  0  0  0  0  0  0  0  0  0
    4.2625   18.8338   -9.5831 H   0  0  0  0  0  0  0  0  0  0  0  0
    4.0163   16.7365   -8.2628 H   0  0  0  0  0  0  0  0  0  0  0  0
    5.5823    8.9420   -7.7235 H   0  0  0  0  0  0  0  0  0  0  0  0
    5.1318    5.1566   -5.3367 H   0  0  0  0  0  0  0  0  0  0  0  0
    4.8839    3.0671   -4.0191 H   0  0  0  0  0  0  0  0  0  0  0  0
  1  2  1  0
  1 29  1  0
  1 30  1  0
  1 31  1  0
  2  3  1  0
  2  4  1  0
  2  5  1  6
  3 32  1  0
  3 33  1  0
  3 34  1  0
  4 35  1  0
  4 36  1  0
  4 37  1  0
  5  6  3  0
  6  7  1  0
  7  8  2  0
  7 28  1  0
  8  9  1  0
  8 38  1  0
  9 10  2  0
  9 39  1  0
 10 11  1  0
 10 27  1  0
 11 12  3  0
 12 13  1  0
 13 14  2  0
 13 26  1  0
 14 15  1  0
 14 40  1  0
 15 16  2  0
 16 17  1  0
 16 25  1  0
 17 18  3  0
 18 19  1  0
 19 20  2  0
 19 24  1  0
 20 21  1  0
 20 41  1  0
 21 22  2  0
 21 42  1  0
 22 23  1  0
 22 43  1  0
 23 24  2  0
 23 44  1  0
 24 45  1  0
 25 26  2  0
 26 46  1  0
 27 28  2  0
 27 47  1  0
 28 48  1  0
M  END

