
     RDKit          3D

 33 34  0  0  0  0  0  0  0  0999 V2000
    0.9546   -0.0874   -0.0926 C   0  0  0  0  0  0  0  0  0  0  0  0
    2.4847    0.0397   -0.0380 C   0  0  1  0  0  0  0  0  0  0  0  0
    2.9054    1.4830   -0.3367 C   0  0  0  0  0  0  0  0  0  0  0  0
    3.0347   -0.4711    1.3308 C   0  0  1  0  0  0  0  0  0  0  0  0
    2.6511   -1.9423    1.5482 C   0  0  0  0  0  0  0  0  0  0  0  0
    1.6123   -2.2790    2.0847 O   0  0  0  0  0  0  0  0  0  0  0  0
    3.5554   -2.8275    1.0434 N   0  0  0  0  0  0  0  0  0  0  0  0
    4.7842   -2.4425    0.3835 C   0  0  0  0  0  0  0  0  0  0  0  0
    5.3987   -1.1664    0.9599 C   0  0  0  0  0  0  0  0  0  0  0  0
    6.5992   -0.9853    0.9251 O   0  0  0  0  0  0  0  0  0  0  0  0
    4.4938   -0.2836    1.5149 N   0  0  0  0  0  0  0  0  0  0  0  0
    4.9953    0.8377    2.2509 C   0  0  0  0  0  0  0  0  0  0  0  0
    5.8001    1.7968    1.6156 C   0  0  0  0  0  0  0  0  0  0  0  0
    6.3086    2.8920    2.3111 C   0  0  0  0  0  0  0  0  0  0  0  0
    6.0166    3.0527    3.6682 C   0  0  0  0  0  0  0  0  0  0  0  0
    5.2423    2.0990    4.3288 C   0  0  0  0  0  0  0  0  0  0  0  0
    4.7527    0.9900    3.6301 C   0  0  0  0  0  0  0  0  0  0  0  0
    3.8031   -0.3360    4.6199 Br  0  0  0  0  0  0  0  0  0  0  0  0
    0.5857    0.2288   -1.0811 H   0  0  0  0  0  0  0  0  0  0  0  0
    0.4832    0.5623    0.6638 H   0  0  0  0  0  0  0  0  0  0  0  0
    0.6058   -1.1115    0.0964 H   0  0  0  0  0  0  0  0  0  0  0  0
    2.9089   -0.6055   -0.8299 H   0  0  0  0  0  0  0  0  0  0  0  0
    2.5619    2.1706    0.4540 H   0  0  0  0  0  0  0  0  0  0  0  0
    2.4573    1.8164   -1.2861 H   0  0  0  0  0  0  0  0  0  0  0  0
    3.9939    1.5926   -0.4286 H   0  0  0  0  0  0  0  0  0  0  0  0
    2.5289    0.0835    2.1308 H   0  0  0  0  0  0  0  0  0  0  0  0
    3.3242   -3.8107    1.1474 H   0  0  0  0  0  0  0  0  0  0  0  0
    4.6571   -2.3030   -0.7088 H   0  0  0  0  0  0  0  0  0  0  0  0
    5.5450   -3.2234    0.5156 H   0  0  0  0  0  0  0  0  0  0  0  0
    6.0374    1.6604    0.5607 H   0  0  0  0  0  0  0  0  0  0  0  0
    6.9326    3.6216    1.7900 H   0  0  0  0  0  0  0  0  0  0  0  0
    6.4024    3.9124    4.2213 H   0  0  0  0  0  0  0  0  0  0  0  0
    5.0283    2.1963    5.3942 H   0  0  0  0  0  0  0  0  0  0  0  0
  1  2  1  0
  1 19  1  0
  1 20  1  0
  1 21  1  0
  2  3  1  0
  2  4  1  0
  2 22  1  6
  3 23  1  0
  3 24  1  0
  3 25  1  0
  4  5  1  0
  4 11  1  0
  4 26  1  1
  5  6  2  0
  5  7  1  0
  7  8  1  0
  7 27  1  0
  8  9  1  0
  8 28  1  0
  8 29  1  0
  9 10  2  0
  9 11  1  0
 11 12  1  0
 12 13  2  0
 12 17  1  0
 13 14  1  0
 13 30  1  0
 14 15  2  0
 14 31  1  0
 15 16  1  0
 15 32  1  0
 16 17  2  0
 16 33  1  0
 17 18  1  0
M  END

