
     RDKit          3D

 62 69  0  0  0  0  0  0  0  0999 V2000
   -1.9958   -2.9303    1.6191 C   0  0  0  0  0  0  0  0  0  0  0  0
   -2.0796   -2.0657    0.5243 C   0  0  0  0  0  0  0  0  0  0  0  0
   -0.9558   -1.3470    0.1081 C   0  0  0  0  0  0  0  0  0  0  0  0
    0.2766   -1.4802    0.7741 C   0  0  0  0  0  0  0  0  0  0  0  0
    1.4515   -0.6658    0.3503 C   0  0  0  0  0  0  0  0  0  0  0  0
    1.3314    0.7159    0.3081 C   0  0  0  0  0  0  0  0  0  0  0  0
    2.4147    1.5434   -0.0264 C   0  0  0  0  0  0  0  0  0  0  0  0
    3.6681    1.0235   -0.3413 C   0  0  0  0  0  0  0  0  0  0  0  0
    4.8255    1.8923   -0.6297 C   0  0  0  0  0  0  0  0  0  0  0  0
    4.7522    3.2722   -0.4715 C   0  0  0  0  0  0  0  0  0  0  0  0
    5.8727    4.0876   -0.6640 C   0  0  0  0  0  0  0  0  0  0  0  0
    7.0954    3.5828   -1.0914 C   0  0  0  0  0  0  0  0  0  0  0  0
    8.2533    4.5221   -1.0274 C   0  0  0  0  0  0  0  0  0  0  0  0
    9.3945    4.2059   -0.2683 C   0  0  0  0  0  0  0  0  0  0  0  0
   10.4242    5.1335   -0.1016 C   0  0  0  0  0  0  0  0  0  0  0  0
   10.3378    6.3984   -0.6913 C   0  0  0  0  0  0  0  0  0  0  0  0
    9.2084    6.7284   -1.4458 C   0  0  0  0  0  0  0  0  0  0  0  0
    8.1763    5.8016   -1.6072 C   0  0  0  0  0  0  0  0  0  0  0  0
    7.1844    2.1800   -1.4170 C   0  0  0  0  0  0  0  0  0  0  0  0
    8.3286    1.5858   -2.0645 C   0  0  0  0  0  0  0  0  0  0  0  0
    9.3815    2.3405   -2.8052 C   0  0  0  0  0  0  0  0  0  0  0  0
   10.7448    2.0471   -2.6187 C   0  0  0  0  0  0  0  0  0  0  0  0
   11.7269    2.6638   -3.3968 C   0  0  0  0  0  0  0  0  0  0  0  0
   11.3656    3.5818   -4.3868 C   0  0  0  0  0  0  0  0  0  0  0  0
   10.0139    3.8767   -4.5896 C   0  0  0  0  0  0  0  0  0  0  0  0
    9.0334    3.2638   -3.8076 C   0  0  0  0  0  0  0  0  0  0  0  0
    8.4016    0.1997   -2.1372 C   0  0  0  0  0  0  0  0  0  0  0  0
    7.3751   -0.6300   -1.6733 C   0  0  0  0  0  0  0  0  0  0  0  0
    6.1855   -0.1048   -1.1795 C   0  0  0  0  0  0  0  0  0  0  0  0
    5.0667   -0.9815   -0.7736 C   0  0  0  0  0  0  0  0  0  0  0  0
    5.1827   -2.3709   -0.7846 C   0  0  0  0  0  0  0  0  0  0  0  0
    4.1012   -3.2031   -0.4489 C   0  0  0  0  0  0  0  0  0  0  0  0
    2.8863   -2.6615   -0.0845 C   0  0  0  0  0  0  0  0  0  0  0  0
    2.7102   -1.2522   -0.0205 C   0  0  0  0  0  0  0  0  0  0  0  0
    3.8180   -0.4003   -0.3743 C   0  0  0  0  0  0  0  0  0  0  0  0
    6.0656    1.3223   -1.0754 C   0  0  0  0  0  0  0  0  0  0  0  0
    0.3445   -2.3525    1.8776 C   0  0  0  0  0  0  0  0  0  0  0  0
   -0.7795   -3.0687    2.2953 C   0  0  0  0  0  0  0  0  0  0  0  0
   -2.8743   -3.4925    1.9458 H   0  0  0  0  0  0  0  0  0  0  0  0
   -3.0247   -1.9517   -0.0133 H   0  0  0  0  0  0  0  0  0  0  0  0
   -1.0256   -0.6804   -0.7551 H   0  0  0  0  0  0  0  0  0  0  0  0
    0.3774    1.1761    0.5766 H   0  0  0  0  0  0  0  0  0  0  0  0
    2.2506    2.6208   -0.0202 H   0  0  0  0  0  0  0  0  0  0  0  0
    3.8321    3.7418   -0.1250 H   0  0  0  0  0  0  0  0  0  0  0  0
    5.8016    5.1470   -0.4084 H   0  0  0  0  0  0  0  0  0  0  0  0
    9.4645    3.2264    0.2100 H   0  0  0  0  0  0  0  0  0  0  0  0
   11.2986    4.8678    0.4983 H   0  0  0  0  0  0  0  0  0  0  0  0
   11.1457    7.1231   -0.5621 H   0  0  0  0  0  0  0  0  0  0  0  0
    9.1305    7.7129   -1.9147 H   0  0  0  0  0  0  0  0  0  0  0  0
    7.3006    6.0659   -2.2056 H   0  0  0  0  0  0  0  0  0  0  0  0
   11.0375    1.3366   -1.8415 H   0  0  0  0  0  0  0  0  0  0  0  0
   12.7805    2.4273   -3.2263 H   0  0  0  0  0  0  0  0  0  0  0  0
   12.1326    4.0640   -4.9982 H   0  0  0  0  0  0  0  0  0  0  0  0
    9.7190    4.5862   -5.3673 H   0  0  0  0  0  0  0  0  0  0  0  0
    7.9793    3.4890   -3.9849 H   0  0  0  0  0  0  0  0  0  0  0  0
    9.2627   -0.2563   -2.6305 H   0  0  0  0  0  0  0  0  0  0  0  0
    7.5075   -1.7069   -1.7712 H   0  0  0  0  0  0  0  0  0  0  0  0
    6.1229   -2.8427   -1.0687 H   0  0  0  0  0  0  0  0  0  0  0  0
    4.2258   -4.2881   -0.4907 H   0  0  0  0  0  0  0  0  0  0  0  0
    2.0459   -3.3157    0.1465 H   0  0  0  0  0  0  0  0  0  0  0  0
    1.2851   -2.4537    2.4242 H   0  0  0  0  0  0  0  0  0  0  0  0
   -0.7061   -3.7338    3.1599 H   0  0  0  0  0  0  0  0  0  0  0  0
  1  2  2  0
  1 38  1  0
  1 39  1  0
  2  3  1  0
  2 40  1  0
  3  4  2  0
  3 41  1  0
  4  5  1  0
  4 37  1  0
  5  6  2  0
  5 34  1  0
  6  7  1  0
  6 42  1  0
  7  8  2  0
  7 43  1  0
  8  9  1  0
  8 35  1  0
  9 10  2  0
  9 36  1  0
 10 11  1  0
 10 44  1  0
 11 12  2  0
 11 45  1  0
 12 13  1  0
 12 19  1  0
 13 14  2  0
 13 18  1  0
 14 15  1  0
 14 46  1  0
 15 16  2  0
 15 47  1  0
 16 17  1  0
 16 48  1  0
 17 18  2  0
 17 49  1  0
 18 50  1  0
 19 20  1  0
 19 36  2  0
 20 21  1  0
 20 27  2  0
 21 22  2  0
 21 26  1  0
 22 23  1  0
 22 51  1  0
 23 24  2  0
 23 52  1  0
 24 25  1  0
 24 53  1  0
 25 26  2  0
 25 54  1  0
 26 55  1  0
 27 28  1  0
 27 56  1  0
 28 29  2  0
 28 57  1  0
 29 30  1  0
 29 36  1  0
 30 31  1  0
 30 35  2  0
 31 32  2  0
 31 58  1  0
 32 33  1  0
 32 59  1  0
 33 34  2  0
 33 60  1  0
 34 35  1  0
 37 38  2  0
 37 61  1  0
 38 62  1  0
M  END

