
     RDKit          3D

 24 25  0  0  0  0  0  0  0  0999 V2000
    1.0392    0.0585   -0.1863 O   0  0  0  0  0  0  0  0  0  0  0  0
    2.3896    0.1058   -0.1319 C   0  0  0  0  0  0  0  0  0  0  0  0
    3.0917    1.2769    0.1835 C   0  0  0  0  0  0  0  0  0  0  0  0
    4.4826    1.2407    0.2192 C   0  0  0  0  0  0  0  0  0  0  0  0
    5.1270    2.3648    0.5502 F   0  0  0  0  0  0  0  0  0  0  0  0
    5.2371    0.0897   -0.0562 C   0  0  0  0  0  0  0  0  0  0  0  0
    6.7194    0.0794   -0.0182 C   0  0  0  0  0  0  0  0  0  0  0  0
    7.4454   -0.8609    0.7308 C   0  0  0  0  0  0  0  0  0  0  0  0
    8.8396   -0.8605    0.7534 C   0  0  0  0  0  0  0  0  0  0  0  0
    9.5664    0.0887    0.0219 C   0  0  0  0  0  0  0  0  0  0  0  0
   10.9162    0.1589   -0.0033 O   0  0  0  0  0  0  0  0  0  0  0  0
    8.8566    1.0323   -0.7357 C   0  0  0  0  0  0  0  0  0  0  0  0
    9.5162    1.9425   -1.4546 F   0  0  0  0  0  0  0  0  0  0  0  0
    7.4629    1.0132   -0.7578 C   0  0  0  0  0  0  0  0  0  0  0  0
    6.8434    1.9136   -1.5244 F   0  0  0  0  0  0  0  0  0  0  0  0
    4.4792   -1.0560   -0.3573 C   0  0  0  0  0  0  0  0  0  0  0  0
    5.1313   -2.1962   -0.6257 F   0  0  0  0  0  0  0  0  0  0  0  0
    3.0919   -1.0768   -0.4025 C   0  0  0  0  0  0  0  0  0  0  0  0
    0.6718    0.9300    0.0119 H   0  0  0  0  0  0  0  0  0  0  0  0
    2.5811    2.2149    0.4121 H   0  0  0  0  0  0  0  0  0  0  0  0
    6.9017   -1.6077    1.3109 H   0  0  0  0  0  0  0  0  0  0  0  0
    9.3790   -1.6025    1.3491 H   0  0  0  0  0  0  0  0  0  0  0  0
   11.2845   -0.5467    0.5443 H   0  0  0  0  0  0  0  0  0  0  0  0
    2.5618   -1.9959   -0.6512 H   0  0  0  0  0  0  0  0  0  0  0  0
  1  2  1  0
  1 19  1  0
  2  3  2  0
  2 18  1  0
  3  4  1  0
  3 20  1  0
  4  5  1  0
  4  6  2  0
  6  7  1  0
  6 16  1  0
  7  8  2  0
  7 14  1  0
  8  9  1  0
  8 21  1  0
  9 10  2  0
  9 22  1  0
 10 11  1  0
 10 12  1  0
 11 23  1  0
 12 13  1  0
 12 14  2  0
 14 15  1  0
 16 17  1  0
 16 18  2  0
 18 24  1  0
M  END

