
     RDKit          3D

 28 31  0  0  0  0  0  0  0  0999 V2000
    0.9878    0.0988    0.0773 N   0  0  0  0  0  0  0  0  0  0  0  0
    2.3738    0.0670    0.0518 C   0  0  0  0  0  0  0  0  0  0  0  0
    3.0464   -1.1707    0.0635 C   0  0  0  0  0  0  0  0  0  0  0  0
    4.4337   -1.2428    0.0613 C   0  0  0  0  0  0  0  0  0  0  0  0
    5.2261   -0.0814    0.0382 C   0  0  0  0  0  0  0  0  0  0  0  0
    6.6614   -0.1254    0.0129 C   0  0  0  0  0  0  0  0  0  0  0  0
    7.4082    1.0164   -0.0124 C   0  0  0  0  0  0  0  0  0  0  0  0
    6.7820    2.3122   -0.0093 C   0  0  0  0  0  0  0  0  0  0  0  0
    7.5279    3.5055   -0.0323 C   0  0  0  0  0  0  0  0  0  0  0  0
    6.8928    4.7486   -0.0238 C   0  0  0  0  0  0  0  0  0  0  0  0
    5.5006    4.8334    0.0098 C   0  0  0  0  0  0  0  0  0  0  0  0
    4.7114    3.6680    0.0327 C   0  0  0  0  0  0  0  0  0  0  0  0
    3.2759    3.7132    0.0815 C   0  0  0  0  0  0  0  0  0  0  0  0
    2.5297    2.5698    0.0981 C   0  0  0  0  0  0  0  0  0  0  0  0
    3.1393    1.2682    0.0596 C   0  0  0  0  0  0  0  0  0  0  0  0
    4.5678    1.1887    0.0388 C   0  0  0  0  0  0  0  0  0  0  0  0
    5.3512    2.3877    0.0200 C   0  0  0  0  0  0  0  0  0  0  0  0
    0.5235   -0.7752   -0.1402 H   0  0  0  0  0  0  0  0  0  0  0  0
    0.5358    0.8960   -0.3540 H   0  0  0  0  0  0  0  0  0  0  0  0
    2.4560   -2.0917    0.0670 H   0  0  0  0  0  0  0  0  0  0  0  0
    4.9221   -2.2211    0.0655 H   0  0  0  0  0  0  0  0  0  0  0  0
    7.1486   -1.1047    0.0128 H   0  0  0  0  0  0  0  0  0  0  0  0
    8.5001    0.9666   -0.0338 H   0  0  0  0  0  0  0  0  0  0  0  0
    8.6195    3.4477   -0.0560 H   0  0  0  0  0  0  0  0  0  0  0  0
    7.4917    5.6629   -0.0417 H   0  0  0  0  0  0  0  0  0  0  0  0
    5.0084    5.8095    0.0202 H   0  0  0  0  0  0  0  0  0  0  0  0
    2.7867    4.6904    0.1169 H   0  0  0  0  0  0  0  0  0  0  0  0
    1.4427    2.6529    0.1672 H   0  0  0  0  0  0  0  0  0  0  0  0
  1  2  1  0
  1 18  1  0
  1 19  1  0
  2  3  2  0
  2 15  1  0
  3  4  1  0
  3 20  1  0
  4  5  2  0
  4 21  1  0
  5  6  1  0
  5 16  1  0
  6  7  2  0
  6 22  1  0
  7  8  1  0
  7 23  1  0
  8  9  2  0
  8 17  1  0
  9 10  1  0
  9 24  1  0
 10 11  2  0
 10 25  1  0
 11 12  1  0
 11 26  1  0
 12 13  2  0
 12 17  1  0
 13 14  1  0
 13 27  1  0
 14 15  2  0
 14 28  1  0
 15 16  1  0
 16 17  2  0
M  END

