
     RDKit          3D

 51 52  0  0  0  0  0  0  0  0999 V2000
    1.4296    1.7231   -2.4660 C   0  0  0  0  0  0  0  0  0  0  0  0
    1.5767    2.4666   -1.1354 C   0  0  0  0  0  0  0  0  0  0  0  0
    2.7185    2.0615   -0.3288 N   0  0  0  0  0  0  0  0  0  0  0  0
    4.0534    2.2958   -0.6068 C   0  0  0  0  0  0  0  0  0  0  0  0
    5.0339    1.6457   -0.0650 N   0  0  0  0  0  0  0  0  0  0  0  0
    4.7427    0.5087    0.7667 C   0  0  0  0  0  0  0  0  0  0  0  0
    5.9706   -0.3271    1.0945 C   0  0  0  0  0  0  0  0  0  0  0  0
    5.9146   -1.2846    2.1213 C   0  0  0  0  0  0  0  0  0  0  0  0
    7.0222   -2.0845    2.4101 C   0  0  0  0  0  0  0  0  0  0  0  0
    8.2095   -1.9441    1.6837 C   0  0  0  0  0  0  0  0  0  0  0  0
    8.2497   -0.9901    0.6706 C   0  0  0  0  0  0  0  0  0  0  0  0
    9.3807   -0.8415   -0.0391 F   0  0  0  0  0  0  0  0  0  0  0  0
    7.1557   -0.1829    0.3651 C   0  0  0  0  0  0  0  0  0  0  0  0
    4.2860    3.2948   -1.5265 N   0  0  0  0  0  0  0  0  0  0  0  0
    5.5988    3.6855   -2.0048 C   0  0  0  0  0  0  0  0  0  0  0  0
    5.9187    5.1702   -1.7770 C   0  0  0  0  0  0  0  0  0  0  0  0
    5.8880    5.6435   -0.3356 C   0  0  0  0  0  0  0  0  0  0  0  0
    5.4791    6.9475   -0.0169 C   0  0  0  0  0  0  0  0  0  0  0  0
    5.4895    7.3989    1.3072 C   0  0  0  0  0  0  0  0  0  0  0  0
    5.8911    6.5484    2.3372 C   0  0  0  0  0  0  0  0  0  0  0  0
    6.2786    5.2333    2.0438 C   0  0  0  0  0  0  0  0  0  0  0  0
    6.6832    4.3437    3.1948 C   0  0  0  0  0  0  0  0  0  0  0  0
    6.9852    4.8150    4.2835 O   0  0  0  0  0  0  0  0  0  0  0  0
    6.6802    3.0018    2.9398 N   0  0  0  0  0  0  0  0  0  0  0  0
    7.0704    2.0280    3.9367 C   0  0  0  0  0  0  0  0  0  0  0  0
    6.2899    4.8026    0.7107 C   0  0  0  0  0  0  0  0  0  0  0  0
    0.5365    2.0712   -3.0097 H   0  0  0  0  0  0  0  0  0  0  0  0
    1.3281    0.6388   -2.2994 H   0  0  0  0  0  0  0  0  0  0  0  0
    2.3092    1.8872   -3.1070 H   0  0  0  0  0  0  0  0  0  0  0  0
    0.6796    2.3088   -0.5155 H   0  0  0  0  0  0  0  0  0  0  0  0
    1.6065    3.5573   -1.3092 H   0  0  0  0  0  0  0  0  0  0  0  0
    2.5489    1.3163    0.3320 H   0  0  0  0  0  0  0  0  0  0  0  0
    4.0059   -0.1786    0.2884 H   0  0  0  0  0  0  0  0  0  0  0  0
    4.2746    0.8027    1.7331 H   0  0  0  0  0  0  0  0  0  0  0  0
    4.9950   -1.4026    2.7019 H   0  0  0  0  0  0  0  0  0  0  0  0
    6.9666   -2.8242    3.2129 H   0  0  0  0  0  0  0  0  0  0  0  0
    9.0919   -2.5529    1.8893 H   0  0  0  0  0  0  0  0  0  0  0  0
    7.2208    0.5563   -0.4328 H   0  0  0  0  0  0  0  0  0  0  0  0
    3.5223    3.9271   -1.7240 H   0  0  0  0  0  0  0  0  0  0  0  0
    5.6861    3.4768   -3.0876 H   0  0  0  0  0  0  0  0  0  0  0  0
    6.3271    3.0368   -1.5026 H   0  0  0  0  0  0  0  0  0  0  0  0
    5.2251    5.7899   -2.3732 H   0  0  0  0  0  0  0  0  0  0  0  0
    6.9187    5.3602   -2.2101 H   0  0  0  0  0  0  0  0  0  0  0  0
    5.1545    7.6214   -0.8159 H   0  0  0  0  0  0  0  0  0  0  0  0
    5.1764    8.4215    1.5341 H   0  0  0  0  0  0  0  0  0  0  0  0
    5.9104    6.8749    3.3785 H   0  0  0  0  0  0  0  0  0  0  0  0
    6.3185    2.6664    2.0526 H   0  0  0  0  0  0  0  0  0  0  0  0
    7.5467    2.5652    4.7670 H   0  0  0  0  0  0  0  0  0  0  0  0
    7.7784    1.2970    3.5151 H   0  0  0  0  0  0  0  0  0  0  0  0
    6.2030    1.4726    4.3360 H   0  0  0  0  0  0  0  0  0  0  0  0
    6.6142    3.7893    0.4744 H   0  0  0  0  0  0  0  0  0  0  0  0
  1  2  1  0
  1 27  1  0
  1 28  1  0
  1 29  1  0
  2  3  1  0
  2 30  1  0
  2 31  1  0
  3  4  1  0
  3 32  1  0
  4  5  2  0
  4 14  1  0
  5  6  1  0
  6  7  1  0
  6 33  1  0
  6 34  1  0
  7  8  2  0
  7 13  1  0
  8  9  1  0
  8 35  1  0
  9 10  2  0
  9 36  1  0
 10 11  1  0
 10 37  1  0
 11 12  1  0
 11 13  2  0
 13 38  1  0
 14 15  1  0
 14 39  1  0
 15 16  1  0
 15 40  1  0
 15 41  1  0
 16 17  1  0
 16 42  1  0
 16 43  1  0
 17 18  2  0
 17 26  1  0
 18 19  1  0
 18 44  1  0
 19 20  2  0
 19 45  1  0
 20 21  1  0
 20 46  1  0
 21 22  1  0
 21 26  2  0
 22 23  2  0
 22 24  1  0
 24 25  1  0
 24 47  1  0
 25 48  1  0
 25 49  1  0
 25 50  1  0
 26 51  1  0
M  END

