
     RDKit          3D

 57 60  0  0  0  0  0  0  0  0999 V2000
    1.2376   -1.3082    1.2366 C   0  0  0  0  0  0  0  0  0  0  0  0
    1.3662    0.0291    0.8190 O   0  0  0  0  0  0  0  0  0  0  0  0
    2.3626    0.7922    1.3473 C   0  0  0  0  0  0  0  0  0  0  0  0
    3.3026    0.3491    2.2832 C   0  0  0  0  0  0  0  0  0  0  0  0
    4.2855    1.2246    2.7684 C   0  0  0  0  0  0  0  0  0  0  0  0
    4.3735    2.5521    2.3214 C   0  0  0  0  0  0  0  0  0  0  0  0
    5.3796    3.4467    2.7598 N   0  0  0  0  0  0  0  0  0  0  0  0
    6.5247    2.8934    3.4701 C   0  0  0  0  0  0  0  0  0  0  0  0
    7.6812    3.8985    3.4763 C   0  0  0  0  0  0  0  0  0  0  0  0
    7.2790    5.2110    3.9885 N   0  0  0  0  0  0  0  0  0  0  0  0
    7.4836    5.4918    5.6457 S   0  0  1  0  0  0  0  0  0  0  0  0
    6.6778    6.6772    5.9567 O   0  0  0  0  0  0  0  0  0  0  0  0
    7.3093    4.2442    6.4034 O   0  0  0  0  0  0  0  0  0  0  0  0
    9.2135    5.9382    5.7625 C   0  0  0  0  0  0  0  0  0  0  0  0
   10.0963    5.0850    6.4256 C   0  0  0  0  0  0  0  0  0  0  0  0
   11.4478    5.4344    6.5575 C   0  0  0  0  0  0  0  0  0  0  0  0
   11.8652    6.6499    6.0159 C   0  0  0  0  0  0  0  0  0  0  0  0
   10.9689    7.5197    5.3534 C   0  0  0  0  0  0  0  0  0  0  0  0
    9.6366    7.1704    5.2273 C   0  0  0  0  0  0  0  0  0  0  0  0
   11.7256    8.7524    4.8976 C   0  0  1  0  0  0  0  0  0  0  0  0
   11.7458    8.9166    3.3655 C   0  0  0  0  0  0  0  0  0  0  0  0
   11.2330   10.0452    5.5772 C   0  0  0  0  0  0  0  0  0  0  0  0
   13.1593    8.4436    5.3885 C   0  0  0  0  0  0  0  0  0  0  0  0
   14.1384    9.1421    5.2529 O   0  0  0  0  0  0  0  0  0  0  0  0
   13.1427    7.2054    6.0264 N   0  0  0  0  0  0  0  0  0  0  0  0
   14.3160    6.6024    6.6175 C   0  0  0  0  0  0  0  0  0  0  0  0
    6.0782    5.7392    3.3332 C   0  0  0  0  0  0  0  0  0  0  0  0
    4.9381    4.7217    3.3287 C   0  0  0  0  0  0  0  0  0  0  0  0
    3.4217    2.9775    1.3665 C   0  0  0  0  0  0  0  0  0  0  0  0
    2.4345    2.1230    0.8970 C   0  0  0  0  0  0  0  0  0  0  0  0
    0.3804   -1.7280    0.6925 H   0  0  0  0  0  0  0  0  0  0  0  0
    1.0428   -1.3862    2.3223 H   0  0  0  0  0  0  0  0  0  0  0  0
    2.1374   -1.9052    0.9979 H   0  0  0  0  0  0  0  0  0  0  0  0
    3.2809   -0.6736    2.6610 H   0  0  0  0  0  0  0  0  0  0  0  0
    4.9816    0.8487    3.5188 H   0  0  0  0  0  0  0  0  0  0  0  0
    6.8568    1.9789    2.9554 H   0  0  0  0  0  0  0  0  0  0  0  0
    6.2828    2.6260    4.5200 H   0  0  0  0  0  0  0  0  0  0  0  0
    8.0459    4.0458    2.4449 H   0  0  0  0  0  0  0  0  0  0  0  0
    8.5176    3.5094    4.0742 H   0  0  0  0  0  0  0  0  0  0  0  0
    9.7162    4.1526    6.8460 H   0  0  0  0  0  0  0  0  0  0  0  0
   12.1421    4.7714    7.0761 H   0  0  0  0  0  0  0  0  0  0  0  0
    8.9170    7.8272    4.7342 H   0  0  0  0  0  0  0  0  0  0  0  0
   10.7388    9.1579    2.9908 H   0  0  0  0  0  0  0  0  0  0  0  0
   12.0856    7.9961    2.8663 H   0  0  0  0  0  0  0  0  0  0  0  0
   12.4299    9.7329    3.0881 H   0  0  0  0  0  0  0  0  0  0  0  0
   10.2179   10.2981    5.2333 H   0  0  0  0  0  0  0  0  0  0  0  0
   11.9082   10.8774    5.3270 H   0  0  0  0  0  0  0  0  0  0  0  0
   11.2054    9.9386    6.6724 H   0  0  0  0  0  0  0  0  0  0  0  0
   15.1569    7.2897    6.4559 H   0  0  0  0  0  0  0  0  0  0  0  0
   14.5447    5.6321    6.1459 H   0  0  0  0  0  0  0  0  0  0  0  0
   14.1793    6.4447    7.7003 H   0  0  0  0  0  0  0  0  0  0  0  0
    6.3565    5.9865    2.2936 H   0  0  0  0  0  0  0  0  0  0  0  0
    5.7716    6.6611    3.8429 H   0  0  0  0  0  0  0  0  0  0  0  0
    4.1020    5.1214    2.7388 H   0  0  0  0  0  0  0  0  0  0  0  0
    4.5696    4.5868    4.3692 H   0  0  0  0  0  0  0  0  0  0  0  0
    3.4753    3.9939    0.9702 H   0  0  0  0  0  0  0  0  0  0  0  0
    1.7063    2.4596    0.1559 H   0  0  0  0  0  0  0  0  0  0  0  0
  1  2  1  0
  1 31  1  0
  1 32  1  0
  1 33  1  0
  2  3  1  0
  3  4  2  0
  3 30  1  0
  4  5  1  0
  4 34  1  0
  5  6  2  0
  5 35  1  0
  6  7  1  0
  6 29  1  0
  7  8  1  0
  7 28  1  0
  8  9  1  0
  8 36  1  0
  8 37  1  0
  9 10  1  0
  9 38  1  0
  9 39  1  0
 10 11  1  0
 10 27  1  0
 11 12  2  0
 11 13  2  0
 11 14  1  6
 14 15  2  0
 14 19  1  0
 15 16  1  0
 15 40  1  0
 16 17  2  0
 16 41  1  0
 17 18  1  0
 17 25  1  0
 18 19  2  0
 18 20  1  0
 19 42  1  0
 20 21  1  6
 20 22  1  0
 20 23  1  0
 21 43  1  0
 21 44  1  0
 21 45  1  0
 22 46  1  0
 22 47  1  0
 22 48  1  0
 23 24  2  0
 23 25  1  0
 25 26  1  0
 26 49  1  0
 26 50  1  0
 26 51  1  0
 27 28  1  0
 27 52  1  0
 27 53  1  0
 28 54  1  0
 28 55  1  0
 29 30  2  0
 29 56  1  0
 30 57  1  0
M  END

