
     RDKit          3D

 76 82  0  0  0  0  0  0  0  0999 V2000
    1.1441    1.0977    0.2663 C   0  0  0  0  0  0  0  0  0  0  0  0
    2.4804    1.6288    0.7592 C   0  0  0  0  0  0  0  0  0  0  0  0
    3.2273    2.2604   -0.2934 O   0  0  0  0  0  0  0  0  0  0  0  0
    4.0063    1.4670   -1.0735 C   0  0  0  0  0  0  0  0  0  0  0  0
    4.0724    0.2691   -0.9108 O   0  0  0  0  0  0  0  0  0  0  0  0
    4.6892    2.2724   -2.1181 C   0  0  0  0  0  0  0  0  0  0  0  0
    5.5357    1.7429   -3.0666 C   0  0  0  0  0  0  0  0  0  0  0  0
    6.1332    0.3793   -3.0736 C   0  0  0  0  0  0  0  0  0  0  0  0
    6.2374   -0.3131   -4.2938 C   0  0  0  0  0  0  0  0  0  0  0  0
    6.8426   -1.5691   -4.3515 C   0  0  0  0  0  0  0  0  0  0  0  0
    7.3864   -2.1382   -3.1961 C   0  0  0  0  0  0  0  0  0  0  0  0
    7.3172   -1.4439   -1.9838 C   0  0  0  0  0  0  0  0  0  0  0  0
    6.6907   -0.1997   -1.9207 C   0  0  0  0  0  0  0  0  0  0  0  0
    5.9220    2.4892   -4.1889 N   0  0  0  0  0  0  0  0  0  0  0  0
    5.4039    3.6453   -4.3619 C   0  0  0  0  0  0  0  0  0  0  0  0
    5.6462    4.5840   -5.8500 S   0  0  0  0  0  0  0  0  0  0  0  0
    4.5310    5.8364   -5.2840 C   0  0  0  0  0  0  0  0  0  0  0  0
    4.1466    6.9911   -5.8783 C   0  0  0  0  0  0  0  0  0  0  0  0
    4.4929    7.5537   -7.1788 C   0  0  0  0  0  0  0  0  0  0  0  0
    5.0698    6.7996   -8.2214 C   0  0  0  0  0  0  0  0  0  0  0  0
    5.3383    7.3867   -9.4554 C   0  0  0  0  0  0  0  0  0  0  0  0
    6.2026    6.2223  -11.0090 I   0  0  0  0  0  0  0  0  0  0  0  0
    5.0348    8.7300   -9.6966 C   0  0  0  0  0  0  0  0  0  0  0  0
    4.4593    9.4870   -8.6716 C   0  0  0  0  0  0  0  0  0  0  0  0
    3.9549   11.5133   -9.0531 I   0  0  0  0  0  0  0  0  0  0  0  0
    4.1897    8.9244   -7.4141 C   0  0  0  0  0  0  0  0  0  0  0  0
    3.5953    9.6597   -6.4364 O   0  0  0  0  0  0  0  0  0  0  0  0
    4.4596   10.3239   -5.5094 C   0  0  0  0  0  0  0  0  0  0  0  0
    3.6481   11.1156   -4.5135 C   0  0  0  0  0  0  0  0  0  0  0  0
    2.2698   11.1607   -4.5917 C   0  0  0  0  0  0  0  0  0  0  0  0
    1.5080   11.9058   -3.6571 C   0  0  0  0  0  0  0  0  0  0  0  0
    2.1316   12.6048   -2.6494 C   0  0  0  0  0  0  0  0  0  0  0  0
    3.5501   12.5902   -2.5310 C   0  0  0  0  0  0  0  0  0  0  0  0
    4.2174   13.3070   -1.4988 C   0  0  0  0  0  0  0  0  0  0  0  0
    5.5920   13.2890   -1.3917 C   0  0  0  0  0  0  0  0  0  0  0  0
    6.3621   12.5474   -2.3198 C   0  0  0  0  0  0  0  0  0  0  0  0
    5.7461   11.8404   -3.3330 C   0  0  0  0  0  0  0  0  0  0  0  0
    4.3281   11.8359   -3.4743 C   0  0  0  0  0  0  0  0  0  0  0  0
    4.0060    5.4941   -3.9213 C   0  0  0  0  0  0  0  0  0  0  0  0
    3.2179    6.1451   -3.2724 O   0  0  0  0  0  0  0  0  0  0  0  0
    4.5715    4.2949   -3.4889 N   0  0  0  0  0  0  0  0  0  0  0  0
    4.3744    3.7676   -2.1218 C   0  0  2  0  0  0  0  0  0  0  0  0
    3.3165    3.9285   -1.8857 H   0  0  0  0  0  0  0  0  0  0  0  0
    5.2005    4.5640   -1.1071 C   0  0  0  0  0  0  0  0  0  0  0  0
    4.5805    5.5468   -0.3223 C   0  0  0  0  0  0  0  0  0  0  0  0
    5.3228    6.2981    0.5925 C   0  0  0  0  0  0  0  0  0  0  0  0
    6.6965    6.0783    0.7303 C   0  0  0  0  0  0  0  0  0  0  0  0
    7.3237    5.1024   -0.0504 C   0  0  0  0  0  0  0  0  0  0  0  0
    6.5793    4.3475   -0.9607 C   0  0  0  0  0  0  0  0  0  0  0  0
    0.5690    0.6887    1.1127 H   0  0  0  0  0  0  0  0  0  0  0  0
    1.2919    0.2921   -0.4677 H   0  0  0  0  0  0  0  0  0  0  0  0
    0.5476    1.8983   -0.1986 H   0  0  0  0  0  0  0  0  0  0  0  0
    3.0878    0.8191    1.1897 H   0  0  0  0  0  0  0  0  0  0  0  0
    2.3433    2.4172    1.5138 H   0  0  0  0  0  0  0  0  0  0  0  0
    5.8393    0.1476   -5.1992 H   0  0  0  0  0  0  0  0  0  0  0  0
    6.8996   -2.1009   -5.3048 H   0  0  0  0  0  0  0  0  0  0  0  0
    7.8711   -3.1170   -3.2412 H   0  0  0  0  0  0  0  0  0  0  0  0
    7.7538   -1.8752   -1.0794 H   0  0  0  0  0  0  0  0  0  0  0  0
    6.6440    0.3322   -0.9704 H   0  0  0  0  0  0  0  0  0  0  0  0
    3.4646    7.5915   -5.2690 H   0  0  0  0  0  0  0  0  0  0  0  0
    5.2760    5.7396   -8.0777 H   0  0  0  0  0  0  0  0  0  0  0  0
    5.2360    9.1832  -10.6672 H   0  0  0  0  0  0  0  0  0  0  0  0
    5.1446   10.9909   -6.0647 H   0  0  0  0  0  0  0  0  0  0  0  0
    5.0828    9.5720   -4.9897 H   0  0  0  0  0  0  0  0  0  0  0  0
    1.7656   10.6129   -5.3881 H   0  0  0  0  0  0  0  0  0  0  0  0
    0.4188   11.9194   -3.7455 H   0  0  0  0  0  0  0  0  0  0  0  0
    1.5483   13.1811   -1.9262 H   0  0  0  0  0  0  0  0  0  0  0  0
    3.6151   13.8774   -0.7863 H   0  0  0  0  0  0  0  0  0  0  0  0
    6.0898   13.8451   -0.5934 H   0  0  0  0  0  0  0  0  0  0  0  0
    7.4515   12.5348   -2.2328 H   0  0  0  0  0  0  0  0  0  0  0  0
    6.3655   11.2776   -4.0340 H   0  0  0  0  0  0  0  0  0  0  0  0
    3.5104    5.7300   -0.4413 H   0  0  0  0  0  0  0  0  0  0  0  0
    4.8260    7.0604    1.1981 H   0  0  0  0  0  0  0  0  0  0  0  0
    7.2777    6.6657    1.4459 H   0  0  0  0  0  0  0  0  0  0  0  0
    8.3970    4.9231    0.0531 H   0  0  0  0  0  0  0  0  0  0  0  0
    7.0775    3.5780   -1.5554 H   0  0  0  0  0  0  0  0  0  0  0  0
  1  2  1  0
  1 50  1  0
  1 51  1  0
  1 52  1  0
  2  3  1  0
  2 53  1  0
  2 54  1  0
  3  4  1  0
  4  5  2  0
  4  6  1  0
  6  7  2  0
  6 42  1  0
  7  8  1  0
  7 14  1  0
  8  9  2  0
  8 13  1  0
  9 10  1  0
  9 55  1  0
 10 11  2  0
 10 56  1  0
 11 12  1  0
 11 57  1  0
 12 13  2  0
 12 58  1  0
 13 59  1  0
 14 15  2  0
 15 16  1  0
 15 41  1  0
 16 17  1  0
 17 18  2  0
 17 39  1  0
 18 19  1  0
 18 60  1  0
 19 20  2  0
 19 26  1  0
 20 21  1  0
 20 61  1  0
 21 22  1  0
 21 23  2  0
 23 24  1  0
 23 62  1  0
 24 25  1  0
 24 26  2  0
 26 27  1  0
 27 28  1  0
 28 29  1  0
 28 63  1  0
 28 64  1  0
 29 30  2  0
 29 38  1  0
 30 31  1  0
 30 65  1  0
 31 32  2  0
 31 66  1  0
 32 33  1  0
 32 67  1  0
 33 34  1  0
 33 38  2  0
 34 35  2  0
 34 68  1  0
 35 36  1  0
 35 69  1  0
 36 37  2  0
 36 70  1  0
 37 38  1  0
 37 71  1  0
 39 40  2  0
 39 41  1  0
 41 42  1  0
 42 43  1  1
 42 44  1  0
 44 45  2  0
 44 49  1  0
 45 46  1  0
 45 72  1  0
 46 47  2  0
 46 73  1  0
 47 48  1  0
 47 74  1  0
 48 49  2  0
 48 75  1  0
 49 76  1  0
M  END

