
     RDKit          3D

 55 57  0  0  0  0  0  0  0  0999 V2000
    4.9687    0.0715   -2.6446 C   0  0  0  0  0  0  0  0  0  0  0  0
    4.8442   -0.1529   -1.1372 C   0  0  0  0  0  0  0  0  0  0  0  0
    4.1360    0.9145   -0.4215 N   0  0  0  0  0  0  0  0  0  0  0  0
    2.6702    0.9466   -0.4340 C   0  0  0  0  0  0  0  0  0  0  0  0
    2.0130    0.0070    0.5773 C   0  0  0  0  0  0  0  0  0  0  0  0
    4.9477    1.9593    0.5943 S   0  0  1  0  0  0  0  0  0  0  0  0
    4.0950    2.2178    1.7598 O   0  0  0  0  0  0  0  0  0  0  0  0
    6.3158    1.4568    0.7358 O   0  0  0  0  0  0  0  0  0  0  0  0
    5.0466    3.5271   -0.2996 C   0  0  0  0  0  0  0  0  0  0  0  0
    4.2302    4.5894    0.0892 C   0  0  0  0  0  0  0  0  0  0  0  0
    4.3240    5.7940   -0.6117 C   0  0  0  0  0  0  0  0  0  0  0  0
    5.2129    5.9110   -1.6772 C   0  0  0  0  0  0  0  0  0  0  0  0
    5.3011    7.4353   -2.5478 Cl  0  0  0  0  0  0  0  0  0  0  0  0
    6.0483    4.8378   -2.0736 C   0  0  0  0  0  0  0  0  0  0  0  0
    6.9172    5.0243   -3.1514 N   0  0  0  0  0  0  0  0  0  0  0  0
    7.6439    4.0742   -3.8464 C   0  0  0  0  0  0  0  0  0  0  0  0
    7.7329    2.9073   -3.4879 O   0  0  0  0  0  0  0  0  0  0  0  0
    8.3247    4.5605   -5.0790 C   0  0  0  0  0  0  0  0  0  0  0  0
    7.8857    5.6221   -5.7935 C   0  0  0  0  0  0  0  0  0  0  0  0
    8.4759    6.0178   -6.9817 N   0  0  0  0  0  0  0  0  0  0  0  0
    9.4176    5.2642   -7.6749 C   0  0  0  0  0  0  0  0  0  0  0  0
    9.9551    5.6943   -8.6720 O   0  0  0  0  0  0  0  0  0  0  0  0
    9.6282    3.8711   -7.1065 C   0  0  0  0  0  0  0  0  0  0  0  0
    9.5286    3.7659   -5.5740 C   0  0  1  0  0  0  0  0  0  0  0  0
   10.7951    4.1789   -4.8184 C   0  0  0  0  0  0  0  0  0  0  0  0
   11.0366    3.6448   -3.5395 C   0  0  0  0  0  0  0  0  0  0  0  0
   12.1651    4.0246   -2.8095 C   0  0  0  0  0  0  0  0  0  0  0  0
   13.0807    4.9410   -3.3348 C   0  0  0  0  0  0  0  0  0  0  0  0
   12.8356    5.4572   -4.6033 C   0  0  0  0  0  0  0  0  0  0  0  0
   13.7044    6.3325   -5.1326 F   0  0  0  0  0  0  0  0  0  0  0  0
   11.7166    5.0937   -5.3510 C   0  0  0  0  0  0  0  0  0  0  0  0
    5.9601    3.6381   -1.3483 C   0  0  0  0  0  0  0  0  0  0  0  0
    5.4366   -0.8085   -3.1152 H   0  0  0  0  0  0  0  0  0  0  0  0
    5.5944    0.9466   -2.8766 H   0  0  0  0  0  0  0  0  0  0  0  0
    3.9847    0.2161   -3.1199 H   0  0  0  0  0  0  0  0  0  0  0  0
    5.8376   -0.2561   -0.6812 H   0  0  0  0  0  0  0  0  0  0  0  0
    4.3117   -1.0994   -0.9375 H   0  0  0  0  0  0  0  0  0  0  0  0
    2.3472    0.7017   -1.4601 H   0  0  0  0  0  0  0  0  0  0  0  0
    2.3386    1.9806   -0.2525 H   0  0  0  0  0  0  0  0  0  0  0  0
    2.3086   -1.0407    0.4076 H   0  0  0  0  0  0  0  0  0  0  0  0
    0.9153    0.0623    0.4936 H   0  0  0  0  0  0  0  0  0  0  0  0
    2.3029    0.2908    1.5989 H   0  0  0  0  0  0  0  0  0  0  0  0
    3.5518    4.4765    0.9353 H   0  0  0  0  0  0  0  0  0  0  0  0
    3.7079    6.6510   -0.3352 H   0  0  0  0  0  0  0  0  0  0  0  0
    7.0025    5.9862   -3.4588 H   0  0  0  0  0  0  0  0  0  0  0  0
    7.0184    6.2184   -5.4980 H   0  0  0  0  0  0  0  0  0  0  0  0
    8.2194    6.9023   -7.4095 H   0  0  0  0  0  0  0  0  0  0  0  0
   10.5837    3.4914   -7.4910 H   0  0  0  0  0  0  0  0  0  0  0  0
    8.8316    3.2488   -7.5535 H   0  0  0  0  0  0  0  0  0  0  0  0
    9.3313    2.7155   -5.3164 H   0  0  0  0  0  0  0  0  0  0  0  0
   10.3309    2.9259   -3.1181 H   0  0  0  0  0  0  0  0  0  0  0  0
   12.3387    3.5969   -1.8189 H   0  0  0  0  0  0  0  0  0  0  0  0
   13.9728    5.2514   -2.7878 H   0  0  0  0  0  0  0  0  0  0  0  0
   11.6082    5.5312   -6.3447 H   0  0  0  0  0  0  0  0  0  0  0  0
    6.6206    2.8157   -1.6110 H   0  0  0  0  0  0  0  0  0  0  0  0
  1  2  1  0
  1 33  1  0
  1 34  1  0
  1 35  1  0
  2  3  1  0
  2 36  1  0
  2 37  1  0
  3  4  1  0
  6  3  1  6
  4  5  1  0
  4 38  1  0
  4 39  1  0
  5 40  1  0
  5 41  1  0
  5 42  1  0
  6  7  2  0
  6  8  2  0
  6  9  1  0
  9 10  2  0
  9 32  1  0
 10 11  1  0
 10 43  1  0
 11 12  2  0
 11 44  1  0
 12 13  1  0
 12 14  1  0
 14 15  1  0
 14 32  2  0
 15 16  1  0
 15 45  1  0
 16 17  2  0
 16 18  1  0
 18 19  2  0
 18 24  1  0
 19 20  1  0
 19 46  1  0
 20 21  1  0
 20 47  1  0
 21 22  2  0
 21 23  1  0
 23 24  1  0
 23 48  1  0
 23 49  1  0
 24 25  1  0
 24 50  1  6
 25 26  2  0
 25 31  1  0
 26 27  1  0
 26 51  1  0
 27 28  2  0
 27 52  1  0
 28 29  1  0
 28 53  1  0
 29 30  1  0
 29 31  2  0
 31 54  1  0
 32 55  1  0
M  END

