
     RDKit          3D

 76 80  0  0  0  0  0  0  0  0999 V2000
    1.9957   -1.7869   -0.6266 C   0  0  0  0  0  0  0  0  0  0  0  0
    3.2905   -0.9722   -0.5662 C   0  0  0  0  0  0  0  0  0  0  0  0
    4.1490   -1.2411    0.5938 N   0  0  0  0  0  0  0  0  0  0  0  0
    5.2851   -2.1419    0.4119 C   0  0  0  0  0  0  0  0  0  0  0  0
    4.9083   -3.5844    0.0620 C   0  0  0  0  0  0  0  0  0  0  0  0
    3.7635   -0.6747    1.7874 C   0  0  0  0  0  0  0  0  0  0  0  0
    2.6908   -0.0926    1.8975 O   0  0  0  0  0  0  0  0  0  0  0  0
    4.6896   -0.7383    2.9786 C   0  0  0  0  0  0  0  0  0  0  0  0
    6.0104   -0.2655    2.9419 C   0  0  0  0  0  0  0  0  0  0  0  0
    6.7836   -0.2216    4.1045 C   0  0  0  0  0  0  0  0  0  0  0  0
    6.2656   -0.6550    5.3383 C   0  0  0  0  0  0  0  0  0  0  0  0
    7.1122   -0.6519    6.5758 C   0  0  0  0  0  0  0  0  0  0  0  0
    7.6358    0.4894    7.0940 C   0  0  0  0  0  0  0  0  0  0  0  0
    7.2769    1.8741    6.5960 C   0  0  0  0  0  0  0  0  0  0  0  0
    8.5339    2.7838    6.4307 C   0  0  1  0  0  0  0  0  0  0  0  0
    8.6620    3.8131    7.5838 C   0  0  0  0  0  0  0  0  0  0  0  0
    9.3367    2.9816    8.7032 C   0  0  0  0  0  0  0  0  0  0  0  0
    9.7016    1.6298    8.0022 C   0  0  1  0  0  0  0  0  0  0  0  0
    8.6482    0.5064    8.2248 C   0  0  0  0  0  0  0  0  0  0  0  0
    9.7286    1.9353    6.5607 N   0  0  0  0  0  0  0  0  0  0  0  0
   10.9723    2.5061    6.0587 C   0  0  0  0  0  0  0  0  0  0  0  0
   12.0326    1.4275    5.7691 C   0  0  0  0  0  0  0  0  0  0  0  0
   13.3132    1.9958    5.1996 C   0  0  0  0  0  0  0  0  0  0  0  0
   14.3715    2.3914    6.0305 C   0  0  0  0  0  0  0  0  0  0  0  0
   15.5398    2.9541    5.5094 C   0  0  0  0  0  0  0  0  0  0  0  0
   15.6756    3.1366    4.1269 C   0  0  0  0  0  0  0  0  0  0  0  0
   16.7881    3.6753    3.5601 O   0  0  0  0  0  0  0  0  0  0  0  0
   14.6292    2.7465    3.2787 C   0  0  0  0  0  0  0  0  0  0  0  0
   13.4709    2.1873    3.8156 C   0  0  0  0  0  0  0  0  0  0  0  0
    7.3446   -2.0025    7.1731 C   0  0  0  0  0  0  0  0  0  0  0  0
    7.1389   -2.2606    8.5394 C   0  0  0  0  0  0  0  0  0  0  0  0
    7.3445   -3.5307    9.0841 C   0  0  0  0  0  0  0  0  0  0  0  0
    7.7638   -4.5878    8.2665 C   0  0  0  0  0  0  0  0  0  0  0  0
    7.9819   -5.8432    8.7379 O   0  0  0  0  0  0  0  0  0  0  0  0
    7.9631   -4.3560    6.8968 C   0  0  0  0  0  0  0  0  0  0  0  0
    7.7466   -3.0879    6.3663 C   0  0  0  0  0  0  0  0  0  0  0  0
    4.9435   -1.1356    5.3641 C   0  0  0  0  0  0  0  0  0  0  0  0
    4.1606   -1.1524    4.2110 C   0  0  0  0  0  0  0  0  0  0  0  0
    1.4203   -1.5081   -1.5247 H   0  0  0  0  0  0  0  0  0  0  0  0
    1.3779   -1.5720    0.2562 H   0  0  0  0  0  0  0  0  0  0  0  0
    2.1870   -2.8697   -0.6699 H   0  0  0  0  0  0  0  0  0  0  0  0
    3.0307    0.0973   -0.5452 H   0  0  0  0  0  0  0  0  0  0  0  0
    3.8998   -1.1471   -1.4684 H   0  0  0  0  0  0  0  0  0  0  0  0
    5.8721   -2.1466    1.3370 H   0  0  0  0  0  0  0  0  0  0  0  0
    5.9429   -1.7329   -0.3782 H   0  0  0  0  0  0  0  0  0  0  0  0
    4.2612   -4.0230    0.8379 H   0  0  0  0  0  0  0  0  0  0  0  0
    5.8205   -4.1984   -0.0109 H   0  0  0  0  0  0  0  0  0  0  0  0
    4.3839   -3.6570   -0.9030 H   0  0  0  0  0  0  0  0  0  0  0  0
    6.4378    0.0883    1.9999 H   0  0  0  0  0  0  0  0  0  0  0  0
    7.8100    0.1521    4.0642 H   0  0  0  0  0  0  0  0  0  0  0  0
    6.5928    2.3321    7.3356 H   0  0  0  0  0  0  0  0  0  0  0  0
    6.7113    1.8247    5.6588 H   0  0  0  0  0  0  0  0  0  0  0  0
    8.5201    3.2619    5.4399 H   0  0  0  0  0  0  0  0  0  0  0  0
    7.6927    4.2426    7.8795 H   0  0  0  0  0  0  0  0  0  0  0  0
    9.3052    4.6517    7.2742 H   0  0  0  0  0  0  0  0  0  0  0  0
    8.6789    2.8219    9.5712 H   0  0  0  0  0  0  0  0  0  0  0  0
   10.2406    3.4827    9.0817 H   0  0  0  0  0  0  0  0  0  0  0  0
   10.6836    1.2641    8.3337 H   0  0  0  0  0  0  0  0  0  0  0  0
    8.1542    0.6591    9.2018 H   0  0  0  0  0  0  0  0  0  0  0  0
    9.1520   -0.4682    8.2813 H   0  0  0  0  0  0  0  0  0  0  0  0
   11.4139    3.2687    6.7375 H   0  0  0  0  0  0  0  0  0  0  0  0
   10.7469    3.0342    5.1173 H   0  0  0  0  0  0  0  0  0  0  0  0
   11.5896    0.6969    5.0734 H   0  0  0  0  0  0  0  0  0  0  0  0
   12.2541    0.8772    6.6987 H   0  0  0  0  0  0  0  0  0  0  0  0
   14.2886    2.2521    7.1127 H   0  0  0  0  0  0  0  0  0  0  0  0
   16.3534    3.2493    6.1803 H   0  0  0  0  0  0  0  0  0  0  0  0
   17.4264    3.8946    4.2513 H   0  0  0  0  0  0  0  0  0  0  0  0
   14.7465    2.8859    2.2020 H   0  0  0  0  0  0  0  0  0  0  0  0
   12.6670    1.8833    3.1383 H   0  0  0  0  0  0  0  0  0  0  0  0
    6.7920   -1.4561    9.1911 H   0  0  0  0  0  0  0  0  0  0  0  0
    7.1691   -3.7034   10.1512 H   0  0  0  0  0  0  0  0  0  0  0  0
    7.8038   -5.8655    9.6873 H   0  0  0  0  0  0  0  0  0  0  0  0
    8.2854   -5.1870    6.2658 H   0  0  0  0  0  0  0  0  0  0  0  0
    7.8999   -2.9276    5.2965 H   0  0  0  0  0  0  0  0  0  0  0  0
    4.5213   -1.4853    6.3096 H   0  0  0  0  0  0  0  0  0  0  0  0
    3.1208   -1.4838    4.2563 H   0  0  0  0  0  0  0  0  0  0  0  0
  1  2  1  0
  1 39  1  0
  1 40  1  0
  1 41  1  0
  2  3  1  0
  2 42  1  0
  2 43  1  0
  3  4  1  0
  3  6  1  0
  4  5  1  0
  4 44  1  0
  4 45  1  0
  5 46  1  0
  5 47  1  0
  5 48  1  0
  6  7  2  0
  6  8  1  0
  8  9  2  0
  8 38  1  0
  9 10  1  0
  9 49  1  0
 10 11  2  0
 10 50  1  0
 11 12  1  0
 11 37  1  0
 12 13  2  0
 12 30  1  0
 13 14  1  0
 13 19  1  0
 14 15  1  0
 14 51  1  0
 14 52  1  0
 15 16  1  0
 15 20  1  0
 15 53  1  6
 16 17  1  0
 16 54  1  0
 16 55  1  0
 17 18  1  0
 17 56  1  0
 17 57  1  0
 18 19  1  0
 18 20  1  0
 18 58  1  1
 19 59  1  0
 19 60  1  0
 20 21  1  0
 21 22  1  0
 21 61  1  0
 21 62  1  0
 22 23  1  0
 22 63  1  0
 22 64  1  0
 23 24  2  0
 23 29  1  0
 24 25  1  0
 24 65  1  0
 25 26  2  0
 25 66  1  0
 26 27  1  0
 26 28  1  0
 27 67  1  0
 28 29  2  0
 28 68  1  0
 29 69  1  0
 30 31  2  0
 30 36  1  0
 31 32  1  0
 31 70  1  0
 32 33  2  0
 32 71  1  0
 33 34  1  0
 33 35  1  0
 34 72  1  0
 35 36  2  0
 35 73  1  0
 36 74  1  0
 37 38  2  0
 37 75  1  0
 38 76  1  0
M  END

