
     RDKit          3D

 51 54  0  0  0  0  0  0  0  0999 V2000
    2.0583    1.0603    2.4123 C   0  0  0  0  0  0  0  0  0  0  0  0
    3.3462    0.8376    1.6709 C   0  0  0  0  0  0  0  0  0  0  0  0
    3.7360   -0.4321    1.2075 C   0  0  0  0  0  0  0  0  0  0  0  0
    4.8778   -0.6304    0.5518 N   0  0  0  0  0  0  0  0  0  0  0  0
    5.6586    0.4334    0.3422 C   0  0  0  0  0  0  0  0  0  0  0  0
    6.9668    0.2961   -0.3934 C   0  0  0  0  0  0  0  0  0  0  0  0
    7.6714    1.2757   -0.6114 O   0  0  0  0  0  0  0  0  0  0  0  0
    7.3368   -0.9425   -0.8041 N   0  0  0  0  0  0  0  0  0  0  0  0
    8.5607   -1.2762   -1.5215 C   0  0  0  0  0  0  0  0  0  0  0  0
    8.1193   -2.7699   -1.5068 C   0  0  2  0  0  0  0  0  0  0  0  0
    7.9680   -3.4099   -2.8873 C   0  0  0  0  0  0  0  0  0  0  0  0
    7.4609   -4.7766   -2.8758 N   0  0  0  0  0  0  0  0  0  0  0  0
    6.1490   -5.1708   -3.1330 C   0  0  0  0  0  0  0  0  0  0  0  0
    5.0541   -4.2529   -3.5674 C   0  0  0  0  0  0  0  0  0  0  0  0
    6.1483   -6.5350   -2.9509 C   0  0  0  0  0  0  0  0  0  0  0  0
    7.3951   -6.9840   -2.6035 N   0  0  0  0  0  0  0  0  0  0  0  0
    8.1732   -5.9230   -2.5643 C   0  0  0  0  0  0  0  0  0  0  0  0
    9.6607   -5.9310   -2.3062 C   0  0  1  0  0  0  0  0  0  0  0  0
   10.1018   -7.0622   -1.3474 C   0  0  0  0  0  0  0  0  0  0  0  0
   10.1822   -8.4264   -2.0389 C   0  0  0  0  0  0  0  0  0  0  0  0
   10.9974   -8.3745   -3.1995 O   0  0  0  0  0  0  0  0  0  0  0  0
   10.4980   -7.4684   -4.1609 C   0  0  0  0  0  0  0  0  0  0  0  0
   10.4851   -6.0378   -3.6195 C   0  0  0  0  0  0  0  0  0  0  0  0
    6.8323   -2.3200   -0.7540 C   0  0  0  0  0  0  0  0  0  0  0  0
    5.2751    1.7061    0.8008 C   0  0  0  0  0  0  0  0  0  0  0  0
    4.1345    1.9018    1.4560 N   0  0  0  0  0  0  0  0  0  0  0  0
    1.4852    0.1301    2.5327 H   0  0  0  0  0  0  0  0  0  0  0  0
    1.4358    1.7957    1.8778 H   0  0  0  0  0  0  0  0  0  0  0  0
    2.2633    1.4833    3.4089 H   0  0  0  0  0  0  0  0  0  0  0  0
    3.0977   -1.3066    1.3778 H   0  0  0  0  0  0  0  0  0  0  0  0
    9.4830   -1.0345   -0.9679 H   0  0  0  0  0  0  0  0  0  0  0  0
    8.6283   -0.8087   -2.5204 H   0  0  0  0  0  0  0  0  0  0  0  0
    8.7693   -3.3924   -0.8760 H   0  0  0  0  0  0  0  0  0  0  0  0
    8.9451   -3.3982   -3.3964 H   0  0  0  0  0  0  0  0  0  0  0  0
    7.2916   -2.8004   -3.5054 H   0  0  0  0  0  0  0  0  0  0  0  0
    5.3013   -3.7134   -4.4987 H   0  0  0  0  0  0  0  0  0  0  0  0
    4.7929   -3.4956   -2.8093 H   0  0  0  0  0  0  0  0  0  0  0  0
    4.1479   -4.8434   -3.7639 H   0  0  0  0  0  0  0  0  0  0  0  0
    5.3027   -7.2131   -3.0658 H   0  0  0  0  0  0  0  0  0  0  0  0
    9.9230   -4.9737   -1.8287 H   0  0  0  0  0  0  0  0  0  0  0  0
    9.4187   -7.1229   -0.4853 H   0  0  0  0  0  0  0  0  0  0  0  0
   11.1037   -6.8080   -0.9609 H   0  0  0  0  0  0  0  0  0  0  0  0
    9.1654   -8.7714   -2.2963 H   0  0  0  0  0  0  0  0  0  0  0  0
   10.6458   -9.1667   -1.3682 H   0  0  0  0  0  0  0  0  0  0  0  0
    9.4781   -7.7639   -4.4795 H   0  0  0  0  0  0  0  0  0  0  0  0
   11.1597   -7.5406   -5.0385 H   0  0  0  0  0  0  0  0  0  0  0  0
   10.0952   -5.3485   -4.3881 H   0  0  0  0  0  0  0  0  0  0  0  0
   11.5253   -5.7363   -3.4069 H   0  0  0  0  0  0  0  0  0  0  0  0
    6.7105   -2.7185    0.2640 H   0  0  0  0  0  0  0  0  0  0  0  0
    5.8827   -2.4654   -1.2900 H   0  0  0  0  0  0  0  0  0  0  0  0
    5.9280    2.5640    0.6171 H   0  0  0  0  0  0  0  0  0  0  0  0
  1  2  1  0
  1 27  1  0
  1 28  1  0
  1 29  1  0
  2  3  2  0
  2 26  1  0
  3  4  1  0
  3 30  1  0
  4  5  2  0
  5  6  1  0
  5 25  1  0
  6  7  2  0
  6  8  1  0
  8  9  1  0
  8 24  1  0
  9 10  1  0
  9 31  1  0
  9 32  1  0
 10 11  1  0
 10 24  1  0
 10 33  1  1
 11 12  1  0
 11 34  1  0
 11 35  1  0
 12 13  1  0
 12 17  1  0
 13 14  1  0
 13 15  2  0
 14 36  1  0
 14 37  1  0
 14 38  1  0
 15 16  1  0
 15 39  1  0
 16 17  2  0
 17 18  1  0
 18 19  1  0
 18 23  1  0
 18 40  1  1
 19 20  1  0
 19 41  1  0
 19 42  1  0
 20 21  1  0
 20 43  1  0
 20 44  1  0
 21 22  1  0
 22 23  1  0
 22 45  1  0
 22 46  1  0
 23 47  1  0
 23 48  1  0
 24 49  1  0
 24 50  1  0
 25 26  2  0
 25 51  1  0
M  END

