
     RDKit          3D

 33 33  0  0  0  0  0  0  0  0999 V2000
    1.7759   -1.3554   -0.0863 C   0  0  0  0  0  0  0  0  0  0  0  0
    2.6129   -0.0779    0.0552 C   0  0  1  0  0  0  0  0  0  0  0  0
    1.8730    1.1646   -0.4556 C   0  0  0  0  0  0  0  0  0  0  0  0
    3.1125    0.1024    1.4275 N   0  0  0  0  0  0  0  0  0  0  0  0
    2.1748    0.2498    2.5223 C   0  0  0  0  0  0  0  0  0  0  0  0
    4.4861    0.0869    1.6292 C   0  0  0  0  0  0  0  0  0  0  0  0
    5.2893   -0.0014    0.7072 O   0  0  0  0  0  0  0  0  0  0  0  0
    4.8929    0.1953    2.9443 N   0  0  0  0  0  0  0  0  0  0  0  0
    6.2889    0.1471    3.3237 C   0  0  1  0  0  0  0  0  0  0  0  0
    6.7305    1.2607    4.2882 C   0  0  0  0  0  0  0  0  0  0  0  0
    8.1135    0.7869    4.7542 C   0  0  0  0  0  0  0  0  0  0  0  0
    8.0047   -0.7632    4.8416 C   0  0  0  0  0  0  0  0  0  0  0  0
    6.7235   -1.1442    4.0562 C   0  0  0  0  0  0  0  0  0  0  0  0
    1.4956   -1.5155   -1.1397 H   0  0  0  0  0  0  0  0  0  0  0  0
    0.8401   -1.3077    0.4965 H   0  0  0  0  0  0  0  0  0  0  0  0
    2.3448   -2.2357    0.2512 H   0  0  0  0  0  0  0  0  0  0  0  0
    3.5262   -0.1967   -0.5424 H   0  0  0  0  0  0  0  0  0  0  0  0
    0.9414    1.3573    0.1038 H   0  0  0  0  0  0  0  0  0  0  0  0
    1.5950    1.0363   -1.5140 H   0  0  0  0  0  0  0  0  0  0  0  0
    2.5117    2.0576   -0.3768 H   0  0  0  0  0  0  0  0  0  0  0  0
    1.1605    0.3835    2.1248 H   0  0  0  0  0  0  0  0  0  0  0  0
    2.3971    1.1410    3.1355 H   0  0  0  0  0  0  0  0  0  0  0  0
    2.1463   -0.6319    3.1924 H   0  0  0  0  0  0  0  0  0  0  0  0
    4.2110    0.1337    3.6886 H   0  0  0  0  0  0  0  0  0  0  0  0
    6.8516    0.2383    2.3830 H   0  0  0  0  0  0  0  0  0  0  0  0
    6.0278    1.3069    5.1418 H   0  0  0  0  0  0  0  0  0  0  0  0
    6.7378    2.2548    3.8148 H   0  0  0  0  0  0  0  0  0  0  0  0
    8.4292    1.2468    5.7031 H   0  0  0  0  0  0  0  0  0  0  0  0
    8.8662    1.0683    3.9993 H   0  0  0  0  0  0  0  0  0  0  0  0
    7.9357   -1.0989    5.8882 H   0  0  0  0  0  0  0  0  0  0  0  0
    8.9008   -1.2451    4.4213 H   0  0  0  0  0  0  0  0  0  0  0  0
    5.9193   -1.4450    4.7505 H   0  0  0  0  0  0  0  0  0  0  0  0
    6.8696   -1.9814    3.3569 H   0  0  0  0  0  0  0  0  0  0  0  0
  1  2  1  0
  1 14  1  0
  1 15  1  0
  1 16  1  0
  2  3  1  0
  2  4  1  0
  2 17  1  6
  3 18  1  0
  3 19  1  0
  3 20  1  0
  4  5  1  0
  4  6  1  0
  5 21  1  0
  5 22  1  0
  5 23  1  0
  6  7  2  0
  6  8  1  0
  8  9  1  0
  8 24  1  0
  9 10  1  0
  9 13  1  0
  9 25  1  6
 10 11  1  0
 10 26  1  0
 10 27  1  0
 11 12  1  0
 11 28  1  0
 11 29  1  0
 12 13  1  0
 12 30  1  0
 12 31  1  0
 13 32  1  0
 13 33  1  0
M  END

