
     RDKit          3D

 28 30  0  0  0  0  0  0  0  0999 V2000
    1.4135    0.4823    0.9107 C   0  0  0  0  0  0  0  0  0  0  0  0
    2.4152    0.0824   -0.0245 O   0  0  0  0  0  0  0  0  0  0  0  0
    2.9957    1.0348   -0.7623 C   0  0  0  0  0  0  0  0  0  0  0  0
    2.6602    2.3151   -0.6398 N   0  0  0  0  0  0  0  0  0  0  0  0
    3.2797    3.2190   -1.4088 C   0  0  0  0  0  0  0  0  0  0  0  0
    4.2275    2.9860   -2.3177 N   0  0  0  0  0  0  0  0  0  0  0  0
    4.5599    1.7042   -2.4364 C   0  0  0  0  0  0  0  0  0  0  0  0
    3.9819    0.6726   -1.6869 C   0  0  0  0  0  0  0  0  0  0  0  0
    4.5771   -0.4984   -2.0883 N   0  0  0  0  0  0  0  0  0  0  0  0
    4.3907   -1.4329   -1.7472 H   0  0  0  0  0  0  0  0  0  0  0  0
    5.5222   -0.2658   -3.0667 C   0  0  0  0  0  0  0  0  0  0  0  0
    6.4310   -1.4565   -3.7800 S   0  0  0  0  0  0  0  0  0  0  0  0
    5.5040    1.1231   -3.2855 N   0  0  0  0  0  0  0  0  0  0  0  0
    6.3014    1.8420   -4.2074 C   0  0  0  0  0  0  0  0  0  0  0  0
    6.3124    3.2513   -4.4080 C   0  0  0  0  0  0  0  0  0  0  0  0
    7.1816    3.5823   -5.3547 N   0  0  0  0  0  0  0  0  0  0  0  0
    7.7286    2.4307   -5.7677 N   0  0  0  0  0  0  0  0  0  0  0  0
    8.7356    2.4330   -6.8100 C   0  0  0  0  0  0  0  0  0  0  0  0
    7.2384    1.3480   -5.1104 C   0  0  0  0  0  0  0  0  0  0  0  0
    1.0785   -0.4397    1.4017 H   0  0  0  0  0  0  0  0  0  0  0  0
    0.5704    0.9714    0.4003 H   0  0  0  0  0  0  0  0  0  0  0  0
    1.8244    1.1830    1.6529 H   0  0  0  0  0  0  0  0  0  0  0  0
    2.9733    4.2620   -1.2762 H   0  0  0  0  0  0  0  0  0  0  0  0
    5.7181    4.0020   -3.8973 H   0  0  0  0  0  0  0  0  0  0  0  0
    8.8775    3.4741   -7.1229 H   0  0  0  0  0  0  0  0  0  0  0  0
    8.4089    1.8338   -7.6741 H   0  0  0  0  0  0  0  0  0  0  0  0
    9.6907    2.0315   -6.4365 H   0  0  0  0  0  0  0  0  0  0  0  0
    7.5656    0.3340   -5.3090 H   0  0  0  0  0  0  0  0  0  0  0  0
  1  2  1  0
  1 20  1  0
  1 21  1  0
  1 22  1  0
  2  3  1  0
  3  4  2  0
  3  8  1  0
  4  5  1  0
  5  6  2  0
  5 23  1  0
  6  7  1  0
  7  8  2  0
  7 13  1  0
  8  9  1  0
  9 10  1  0
  9 11  1  0
 11 12  2  0
 11 13  1  0
 13 14  1  0
 14 15  1  0
 14 19  2  0
 15 16  2  0
 15 24  1  0
 16 17  1  0
 17 18  1  0
 17 19  1  0
 18 25  1  0
 18 26  1  0
 18 27  1  0
 19 28  1  0
M  END

