
     RDKit          3D

 44 45  0  0  0  0  0  0  0  0999 V2000
    2.3990    3.6560   -2.9473 C   0  0  0  0  0  0  0  0  0  0  0  0
    2.8364    2.3425   -2.7183 O   0  0  0  0  0  0  0  0  0  0  0  0
    3.7621    2.2162   -1.6609 C   0  0  0  0  0  0  0  0  0  0  0  0
    4.1766    0.7575   -1.5709 C   0  0  0  0  0  0  0  0  0  0  0  0
    4.7451    0.3024   -2.8211 N   0  0  0  0  0  0  0  0  0  0  0  0
    5.8895   -0.4409   -2.8924 C   0  0  0  0  0  0  0  0  0  0  0  0
    6.5053   -0.7944   -1.8956 O   0  0  0  0  0  0  0  0  0  0  0  0
    6.3504   -0.8165   -4.2776 C   0  0  0  0  0  0  0  0  0  0  0  0
    5.9340   -0.1628   -5.4495 C   0  0  0  0  0  0  0  0  0  0  0  0
    6.4157   -0.5602   -6.6970 C   0  0  0  0  0  0  0  0  0  0  0  0
    7.3262   -1.6216   -6.8103 C   0  0  0  0  0  0  0  0  0  0  0  0
    7.8038   -2.0965   -8.1733 C   0  0  0  0  0  0  0  0  0  0  0  0
    7.9947   -1.0164   -9.1292 N   0  0  0  0  0  0  0  0  0  0  0  0
    9.1557   -0.1620   -8.8721 C   0  0  0  0  0  0  0  0  0  0  0  0
   10.4874   -0.7691   -9.3492 C   0  0  0  0  0  0  0  0  0  0  0  0
   10.4044   -1.1667  -10.8299 C   0  0  0  0  0  0  0  0  0  0  0  0
    9.1819   -2.0590  -11.0878 C   0  0  0  0  0  0  0  0  0  0  0  0
    7.9074   -1.3944  -10.5374 C   0  0  0  0  0  0  0  0  0  0  0  0
    7.7545   -2.2600   -5.6368 C   0  0  0  0  0  0  0  0  0  0  0  0
    7.2776   -1.8626   -4.3879 C   0  0  0  0  0  0  0  0  0  0  0  0
    1.6898    3.6345   -3.7878 H   0  0  0  0  0  0  0  0  0  0  0  0
    3.2372    4.3335   -3.2086 H   0  0  0  0  0  0  0  0  0  0  0  0
    1.8829    4.0802   -2.0624 H   0  0  0  0  0  0  0  0  0  0  0  0
    3.3106    2.5402   -0.7001 H   0  0  0  0  0  0  0  0  0  0  0  0
    4.6507    2.8552   -1.8454 H   0  0  0  0  0  0  0  0  0  0  0  0
    3.2930    0.1507   -1.2976 H   0  0  0  0  0  0  0  0  0  0  0  0
    4.9339    0.6132   -0.7877 H   0  0  0  0  0  0  0  0  0  0  0  0
    4.2097    0.5010   -3.6567 H   0  0  0  0  0  0  0  0  0  0  0  0
    5.2482    0.6872   -5.3990 H   0  0  0  0  0  0  0  0  0  0  0  0
    6.1050   -0.0390   -7.6051 H   0  0  0  0  0  0  0  0  0  0  0  0
    7.0317   -2.7685   -8.5897 H   0  0  0  0  0  0  0  0  0  0  0  0
    8.7018   -2.7352   -8.0253 H   0  0  0  0  0  0  0  0  0  0  0  0
    9.1938    0.0724   -7.7968 H   0  0  0  0  0  0  0  0  0  0  0  0
    8.9932    0.7980   -9.3975 H   0  0  0  0  0  0  0  0  0  0  0  0
   10.7317   -1.6583   -8.7405 H   0  0  0  0  0  0  0  0  0  0  0  0
   11.3050   -0.0471   -9.1828 H   0  0  0  0  0  0  0  0  0  0  0  0
   11.3314   -1.6697  -11.1526 H   0  0  0  0  0  0  0  0  0  0  0  0
   10.3173   -0.2512  -11.4453 H   0  0  0  0  0  0  0  0  0  0  0  0
    9.3282   -3.0409  -10.6020 H   0  0  0  0  0  0  0  0  0  0  0  0
    9.0636   -2.2590  -12.1667 H   0  0  0  0  0  0  0  0  0  0  0  0
    7.0319   -2.0496  -10.6762 H   0  0  0  0  0  0  0  0  0  0  0  0
    7.7092   -0.4754  -11.1215 H   0  0  0  0  0  0  0  0  0  0  0  0
    8.4774   -3.0788   -5.7027 H   0  0  0  0  0  0  0  0  0  0  0  0
    7.6182   -2.3464   -3.4705 H   0  0  0  0  0  0  0  0  0  0  0  0
  1  2  1  0
  1 21  1  0
  1 22  1  0
  1 23  1  0
  2  3  1  0
  3  4  1  0
  3 24  1  0
  3 25  1  0
  4  5  1  0
  4 26  1  0
  4 27  1  0
  5  6  1  0
  5 28  1  0
  6  7  2  0
  6  8  1  0
  8  9  2  0
  8 20  1  0
  9 10  1  0
  9 29  1  0
 10 11  2  0
 10 30  1  0
 11 12  1  0
 11 19  1  0
 12 13  1  0
 12 31  1  0
 12 32  1  0
 13 14  1  0
 13 18  1  0
 14 15  1  0
 14 33  1  0
 14 34  1  0
 15 16  1  0
 15 35  1  0
 15 36  1  0
 16 17  1  0
 16 37  1  0
 16 38  1  0
 17 18  1  0
 17 39  1  0
 17 40  1  0
 18 41  1  0
 18 42  1  0
 19 20  2  0
 19 43  1  0
 20 44  1  0
M  END

