
     RDKit          3D

 51 53  0  0  0  0  0  0  0  0999 V2000
    2.0722    0.1468   -2.8485 C   0  0  0  0  0  0  0  0  0  0  0  0
    1.9815   -0.1549   -1.3552 C   0  0  2  0  0  0  0  0  0  0  0  0
    0.9360   -0.0625   -1.0112 H   0  0  0  0  0  0  0  0  0  0  0  0
    2.8206    0.7038   -0.5838 O   0  0  0  0  0  0  0  0  0  0  0  0
    2.4254    1.9629   -0.2281 C   0  0  0  0  0  0  0  0  0  0  0  0
    1.1735    2.5221   -0.5181 C   0  0  0  0  0  0  0  0  0  0  0  0
    0.8744    3.8166   -0.0830 C   0  0  0  0  0  0  0  0  0  0  0  0
    1.7958    4.5912    0.6404 C   0  0  0  0  0  0  0  0  0  0  0  0
    1.4645    5.9672    1.0955 C   0  0  0  0  0  0  0  0  0  0  0  0
    0.1666    6.2950    1.5329 C   0  0  0  0  0  0  0  0  0  0  0  0
   -0.1455    7.5877    1.9588 C   0  0  0  0  0  0  0  0  0  0  0  0
    0.8339    8.5854    1.9607 C   0  0  0  0  0  0  0  0  0  0  0  0
    2.1279    8.2766    1.5310 C   0  0  0  0  0  0  0  0  0  0  0  0
    2.4385    6.9843    1.1029 C   0  0  0  0  0  0  0  0  0  0  0  0
    3.0503    4.0092    0.9137 C   0  0  0  0  0  0  0  0  0  0  0  0
    3.3633    2.7223    0.4894 C   0  0  0  0  0  0  0  0  0  0  0  0
    2.3613   -1.6241   -1.0764 C   0  0  0  0  0  0  0  0  0  0  0  0
    1.7917   -2.5122   -1.6883 O   0  0  0  0  0  0  0  0  0  0  0  0
    3.3244   -1.7942   -0.1285 N   0  0  0  0  0  0  0  0  0  0  0  0
    3.8775   -2.9923    0.3648 C   0  0  0  0  0  0  0  0  0  0  0  0
    3.4900   -4.2644   -0.0812 C   0  0  0  0  0  0  0  0  0  0  0  0
    4.0831   -5.4128    0.4551 C   0  0  0  0  0  0  0  0  0  0  0  0
    5.0704   -5.3105    1.4428 C   0  0  0  0  0  0  0  0  0  0  0  0
    5.6998   -6.3769    2.0192 O   0  0  0  0  0  0  0  0  0  0  0  0
    5.3612   -7.6890    1.6207 C   0  0  0  0  0  0  0  0  0  0  0  0
    6.1797   -8.7292    2.3878 C   0  0  0  0  0  0  0  0  0  0  0  0
    7.0565   -8.2255    3.2898 N   0  0  0  0  0  0  0  0  0  0  0  0
    6.0141   -9.9131    2.1638 O   0  0  0  0  0  0  0  0  0  0  0  0
    5.4600   -4.0383    1.8906 C   0  0  0  0  0  0  0  0  0  0  0  0
    4.8709   -2.8982    1.3582 C   0  0  0  0  0  0  0  0  0  0  0  0
    3.1187    0.0787   -3.1832 H   0  0  0  0  0  0  0  0  0  0  0  0
    1.6987    1.1560   -3.0741 H   0  0  0  0  0  0  0  0  0  0  0  0
    1.4757   -0.5912   -3.4020 H   0  0  0  0  0  0  0  0  0  0  0  0
    0.4266    1.9720   -1.0904 H   0  0  0  0  0  0  0  0  0  0  0  0
   -0.0988    4.2399   -0.3415 H   0  0  0  0  0  0  0  0  0  0  0  0
   -0.6028    5.5199    1.5633 H   0  0  0  0  0  0  0  0  0  0  0  0
   -1.1588    7.8142    2.3007 H   0  0  0  0  0  0  0  0  0  0  0  0
    0.5903    9.5969    2.2951 H   0  0  0  0  0  0  0  0  0  0  0  0
    2.9005    9.0500    1.5196 H   0  0  0  0  0  0  0  0  0  0  0  0
    3.4474    6.7662    0.7447 H   0  0  0  0  0  0  0  0  0  0  0  0
    3.7898    4.5683    1.4915 H   0  0  0  0  0  0  0  0  0  0  0  0
    4.3363    2.2796    0.7129 H   0  0  0  0  0  0  0  0  0  0  0  0
    3.6842   -0.9277    0.2599 H   0  0  0  0  0  0  0  0  0  0  0  0
    2.7234   -4.3476   -0.8485 H   0  0  0  0  0  0  0  0  0  0  0  0
    3.7581   -6.3854    0.0853 H   0  0  0  0  0  0  0  0  0  0  0  0
    5.5509   -7.8494    0.5440 H   0  0  0  0  0  0  0  0  0  0  0  0
    4.2939   -7.9079    1.8058 H   0  0  0  0  0  0  0  0  0  0  0  0
    7.1399   -7.2259    3.4210 H   0  0  0  0  0  0  0  0  0  0  0  0
    7.6255   -8.8683    3.8267 H   0  0  0  0  0  0  0  0  0  0  0  0
    6.2299   -3.9615    2.6609 H   0  0  0  0  0  0  0  0  0  0  0  0
    5.1852   -1.9143    1.7185 H   0  0  0  0  0  0  0  0  0  0  0  0
  1  2  1  0
  1 31  1  0
  1 32  1  0
  1 33  1  0
  2  3  1  1
  2  4  1  0
  2 17  1  0
  4  5  1  0
  5  6  2  0
  5 16  1  0
  6  7  1  0
  6 34  1  0
  7  8  2  0
  7 35  1  0
  8  9  1  0
  8 15  1  0
  9 10  2  0
  9 14  1  0
 10 11  1  0
 10 36  1  0
 11 12  2  0
 11 37  1  0
 12 13  1  0
 12 38  1  0
 13 14  2  0
 13 39  1  0
 14 40  1  0
 15 16  2  0
 15 41  1  0
 16 42  1  0
 17 18  2  0
 17 19  1  0
 19 20  1  0
 19 43  1  0
 20 21  2  0
 20 30  1  0
 21 22  1  0
 21 44  1  0
 22 23  2  0
 22 45  1  0
 23 24  1  0
 23 29  1  0
 24 25  1  0
 25 26  1  0
 25 46  1  0
 25 47  1  0
 26 27  1  0
 26 28  2  0
 27 48  1  0
 27 49  1  0
 29 30  2  0
 29 50  1  0
 30 51  1  0
M  END

