
     RDKit          3D

 35 36  0  0  0  0  0  0  0  0999 V2000
    3.5105   -2.7201   -2.7706 C   0  0  0  0  0  0  0  0  0  0  0  0
    2.6762   -2.0663   -1.6664 C   0  0  0  0  0  0  0  0  0  0  0  0
    2.9610   -0.5674   -1.4229 C   0  0  1  0  0  0  0  0  0  0  0  0
    2.5517    0.3425   -2.6122 C   0  0  0  0  0  0  0  0  0  0  0  0
    1.0626    0.4397   -2.8811 C   0  0  0  0  0  0  0  0  0  0  0  0
    0.2649    1.3330   -2.1166 C   0  0  0  0  0  0  0  0  0  0  0  0
   -1.1099    1.4622   -2.3090 C   0  0  0  0  0  0  0  0  0  0  0  0
   -1.6905    0.6663   -3.3030 C   0  0  0  0  0  0  0  0  0  0  0  0
   -0.9233   -0.2328   -4.0874 C   0  0  0  0  0  0  0  0  0  0  0  0
    0.4593   -0.3418   -3.8725 C   0  0  0  0  0  0  0  0  0  0  0  0
   -1.7389   -0.8843   -4.9971 N   0  0  0  0  0  0  0  0  0  0  0  0
   -2.9332   -0.4058   -4.7748 C   0  0  0  0  0  0  0  0  0  0  0  0
   -2.9881    0.5351   -3.7673 N   0  0  0  0  0  0  0  0  0  0  0  0
   -4.1531    1.2481   -3.2957 C   0  0  0  0  0  0  0  0  0  0  0  0
    2.3741   -0.0543   -0.1854 N   0  0  0  0  0  0  0  0  0  0  0  0
    3.0203   -0.4496    1.0506 C   0  0  0  0  0  0  0  0  0  0  0  0
    3.3007   -3.7995   -2.8402 H   0  0  0  0  0  0  0  0  0  0  0  0
    4.5909   -2.6055   -2.5780 H   0  0  0  0  0  0  0  0  0  0  0  0
    3.3058   -2.2864   -3.7623 H   0  0  0  0  0  0  0  0  0  0  0  0
    2.8611   -2.6050   -0.7212 H   0  0  0  0  0  0  0  0  0  0  0  0
    1.6006   -2.1938   -1.8843 H   0  0  0  0  0  0  0  0  0  0  0  0
    4.0558   -0.4509   -1.3150 H   0  0  0  0  0  0  0  0  0  0  0  0
    3.0628   -0.0102   -3.5216 H   0  0  0  0  0  0  0  0  0  0  0  0
    2.9470    1.3474   -2.3953 H   0  0  0  0  0  0  0  0  0  0  0  0
    0.7565    1.9354   -1.3495 H   0  0  0  0  0  0  0  0  0  0  0  0
   -1.6962    2.1630   -1.7100 H   0  0  0  0  0  0  0  0  0  0  0  0
    1.0458   -1.0269   -4.4889 H   0  0  0  0  0  0  0  0  0  0  0  0
   -3.8393   -0.6948   -5.3124 H   0  0  0  0  0  0  0  0  0  0  0  0
   -5.0365    0.9082   -3.8537 H   0  0  0  0  0  0  0  0  0  0  0  0
   -4.0433    2.3351   -3.4455 H   0  0  0  0  0  0  0  0  0  0  0  0
   -4.3259    1.0605   -2.2230 H   0  0  0  0  0  0  0  0  0  0  0  0
    1.3784   -0.2696   -0.1564 H   0  0  0  0  0  0  0  0  0  0  0  0
    4.0503   -0.0541    1.0795 H   0  0  0  0  0  0  0  0  0  0  0  0
    3.0882   -1.5455    1.2307 H   0  0  0  0  0  0  0  0  0  0  0  0
    2.4817   -0.0111    1.9061 H   0  0  0  0  0  0  0  0  0  0  0  0
  1  2  1  0
  1 17  1  0
  1 18  1  0
  1 19  1  0
  2  3  1  0
  2 20  1  0
  2 21  1  0
  3  4  1  0
  3 15  1  0
  3 22  1  1
  4  5  1  0
  4 23  1  0
  4 24  1  0
  5  6  2  0
  5 10  1  0
  6  7  1  0
  6 25  1  0
  7  8  2  0
  7 26  1  0
  8  9  1  0
  8 13  1  0
  9 10  2  0
  9 11  1  0
 10 27  1  0
 11 12  2  0
 12 13  1  0
 12 28  1  0
 13 14  1  0
 14 29  1  0
 14 30  1  0
 14 31  1  0
 15 16  1  0
 15 32  1  0
 16 33  1  0
 16 34  1  0
 16 35  1  0
M  END

