
     RDKit          3D

 42 45  0  0  0  0  0  0  0  0999 V2000
    2.2842    0.8291    1.4987 O   0  0  0  0  0  0  0  0  0  0  0  0
    2.9967    0.5788    0.5511 C   0  0  0  0  0  0  0  0  0  0  0  0
    3.4107   -0.8480    0.1983 C   0  0  0  0  0  0  0  0  0  0  0  0
    3.7398   -1.0545   -1.1712 O   0  0  0  0  0  0  0  0  0  0  0  0
    4.4615   -0.0882   -1.7878 C   0  0  0  0  0  0  0  0  0  0  0  0
    5.2383   -0.4162   -2.9008 C   0  0  0  0  0  0  0  0  0  0  0  0
    5.9474    0.5766   -3.5768 C   0  0  0  0  0  0  0  0  0  0  0  0
    5.8925    1.9115   -3.1395 C   0  0  0  0  0  0  0  0  0  0  0  0
    6.6259    3.0251   -3.8069 C   0  0  0  0  0  0  0  0  0  0  0  0
    6.5730    4.1683   -3.4032 O   0  0  0  0  0  0  0  0  0  0  0  0
    7.4717    2.6899   -5.0436 C   0  0  0  0  0  0  0  0  0  0  0  0
    8.0368    3.8661   -5.5931 O   0  0  0  0  0  0  0  0  0  0  0  0
    9.1425    4.3488   -4.9764 C   0  0  0  0  0  0  0  0  0  0  0  0
    9.7476    3.7692   -4.1206 O   0  0  0  0  0  0  0  0  0  0  0  0
    9.4814    5.7167   -5.5512 C   0  0  2  0  0  0  0  0  0  0  0  0
    8.6435    6.3912   -5.2846 H   0  0  0  0  0  0  0  0  0  0  0  0
    9.6230    5.7088   -7.0769 C   0  0  0  0  0  0  0  0  0  0  0  0
    9.9138    7.0120   -7.5432 O   0  0  0  0  0  0  0  0  0  0  0  0
   10.8822    7.6707   -6.8348 C   0  0  0  0  0  0  0  0  0  0  0  0
   11.4904    8.7952   -7.4011 C   0  0  0  0  0  0  0  0  0  0  0  0
   12.4835    9.4827   -6.7015 C   0  0  0  0  0  0  0  0  0  0  0  0
   12.8778    9.0431   -5.4318 C   0  0  0  0  0  0  0  0  0  0  0  0
   12.2665    7.9278   -4.8569 C   0  0  0  0  0  0  0  0  0  0  0  0
   11.2641    7.2414   -5.5492 C   0  0  0  0  0  0  0  0  0  0  0  0
   10.6779    6.1587   -4.9510 O   0  0  0  0  0  0  0  0  0  0  0  0
    5.1088    2.2345   -2.0172 C   0  0  0  0  0  0  0  0  0  0  0  0
    4.3893    1.2523   -1.3445 C   0  0  0  0  0  0  0  0  0  0  0  0
    3.5531    1.5382   -0.2568 N   0  0  0  0  0  0  0  0  0  0  0  0
    2.5746   -1.5162    0.4390 H   0  0  0  0  0  0  0  0  0  0  0  0
    4.2686   -1.1232    0.8431 H   0  0  0  0  0  0  0  0  0  0  0  0
    5.2683   -1.4590   -3.2215 H   0  0  0  0  0  0  0  0  0  0  0  0
    6.5503    0.2915   -4.4405 H   0  0  0  0  0  0  0  0  0  0  0  0
    6.8403    2.2502   -5.8296 H   0  0  0  0  0  0  0  0  0  0  0  0
    8.2593    1.9701   -4.7694 H   0  0  0  0  0  0  0  0  0  0  0  0
    8.6862    5.3921   -7.5517 H   0  0  0  0  0  0  0  0  0  0  0  0
   10.4296    5.0078   -7.3642 H   0  0  0  0  0  0  0  0  0  0  0  0
   11.1687    9.1065   -8.3973 H   0  0  0  0  0  0  0  0  0  0  0  0
   12.9543   10.3595   -7.1520 H   0  0  0  0  0  0  0  0  0  0  0  0
   13.6591    9.5740   -4.8831 H   0  0  0  0  0  0  0  0  0  0  0  0
   12.5428    7.5675   -3.8638 H   0  0  0  0  0  0  0  0  0  0  0  0
    5.0712    3.2774   -1.6946 H   0  0  0  0  0  0  0  0  0  0  0  0
    3.3612    2.5053   -0.0104 H   0  0  0  0  0  0  0  0  0  0  0  0
  1  2  2  0
  2  3  1  0
  2 28  1  0
  3  4  1  0
  3 29  1  0
  3 30  1  0
  4  5  1  0
  5  6  1  0
  5 27  2  0
  6  7  2  0
  6 31  1  0
  7  8  1  0
  7 32  1  0
  8  9  1  0
  8 26  2  0
  9 10  2  0
  9 11  1  0
 11 12  1  0
 11 33  1  0
 11 34  1  0
 12 13  1  0
 13 14  2  0
 13 15  1  0
 15 16  1  6
 15 17  1  0
 15 25  1  0
 17 18  1  0
 17 35  1  0
 17 36  1  0
 18 19  1  0
 19 20  2  0
 19 24  1  0
 20 21  1  0
 20 37  1  0
 21 22  2  0
 21 38  1  0
 22 23  1  0
 22 39  1  0
 23 24  2  0
 23 40  1  0
 24 25  1  0
 26 27  1  0
 26 41  1  0
 27 28  1  0
 28 42  1  0
M  END

