
     RDKit          3D

 40 43  0  0  0  0  0  0  0  0999 V2000
    3.5162   -0.1861    0.8243 N   0  0  0  0  0  0  0  0  0  0  0  0
    2.3340    0.1560    0.0226 C   0  0  1  0  0  0  0  0  0  0  0  0
    2.6632    1.0262   -1.1910 C   0  0  0  0  0  0  0  0  0  0  0  0
    2.3020    2.3802   -1.2244 C   0  0  0  0  0  0  0  0  0  0  0  0
    2.6615    3.1837   -2.3072 C   0  0  0  0  0  0  0  0  0  0  0  0
    3.3923    2.6721   -3.3894 C   0  0  0  0  0  0  0  0  0  0  0  0
    3.7646    1.3103   -3.3684 C   0  0  0  0  0  0  0  0  0  0  0  0
    3.3910    0.5167   -2.2746 C   0  0  0  0  0  0  0  0  0  0  0  0
    4.5870    0.7016   -4.4919 C   0  0  0  0  0  0  0  0  0  0  0  0
    4.5711    1.5303   -5.7800 C   0  0  0  0  0  0  0  0  0  0  0  0
    4.8335    3.0059   -5.4693 C   0  0  0  0  0  0  0  0  0  0  0  0
    3.7288    3.5681   -4.5690 C   0  0  0  0  0  0  0  0  0  0  0  0
    1.5337   -1.1057   -0.3211 C   0  0  0  0  0  0  0  0  0  0  0  0
    0.5830   -1.0963   -1.3528 C   0  0  0  0  0  0  0  0  0  0  0  0
   -0.2172   -2.2179   -1.6437 C   0  0  0  0  0  0  0  0  0  0  0  0
   -0.0283   -3.3453   -0.8645 C   0  0  0  0  0  0  0  0  0  0  0  0
    0.9143   -3.3654    0.1642 C   0  0  0  0  0  0  0  0  0  0  0  0
    1.7048   -2.2707    0.4622 C   0  0  0  0  0  0  0  0  0  0  0  0
    0.9157   -4.6062    0.7488 O   0  0  0  0  0  0  0  0  0  0  0  0
   -0.1915   -5.3030    0.1884 C   0  0  0  0  0  0  0  0  0  0  0  0
   -0.6370   -4.5698   -0.9493 O   0  0  0  0  0  0  0  0  0  0  0  0
    3.9728    0.6702    1.1381 H   0  0  0  0  0  0  0  0  0  0  0  0
    4.2005   -0.6724    0.2416 H   0  0  0  0  0  0  0  0  0  0  0  0
    1.6918    0.7668    0.6836 H   0  0  0  0  0  0  0  0  0  0  0  0
    1.7322    2.8102   -0.3948 H   0  0  0  0  0  0  0  0  0  0  0  0
    2.3666    4.2377   -2.3158 H   0  0  0  0  0  0  0  0  0  0  0  0
    3.6716   -0.5421   -2.2787 H   0  0  0  0  0  0  0  0  0  0  0  0
    4.2406   -0.3270   -4.6870 H   0  0  0  0  0  0  0  0  0  0  0  0
    5.6331    0.6023   -4.1444 H   0  0  0  0  0  0  0  0  0  0  0  0
    3.5878    1.4322   -6.2754 H   0  0  0  0  0  0  0  0  0  0  0  0
    5.3192    1.1381   -6.4882 H   0  0  0  0  0  0  0  0  0  0  0  0
    4.8994    3.5979   -6.3968 H   0  0  0  0  0  0  0  0  0  0  0  0
    5.8124    3.1024   -4.9651 H   0  0  0  0  0  0  0  0  0  0  0  0
    2.8123    3.7091   -5.1732 H   0  0  0  0  0  0  0  0  0  0  0  0
    3.9999    4.5730   -4.2038 H   0  0  0  0  0  0  0  0  0  0  0  0
    0.4535   -0.1936   -1.9527 H   0  0  0  0  0  0  0  0  0  0  0  0
   -0.9512   -2.2035   -2.4511 H   0  0  0  0  0  0  0  0  0  0  0  0
    2.4339   -2.2866    1.2714 H   0  0  0  0  0  0  0  0  0  0  0  0
   -1.0100   -5.3651    0.9344 H   0  0  0  0  0  0  0  0  0  0  0  0
    0.1215   -6.3136   -0.1204 H   0  0  0  0  0  0  0  0  0  0  0  0
  1  2  1  0
  1 22  1  0
  1 23  1  0
  2  3  1  0
  2 13  1  0
  2 24  1  1
  3  4  2  0
  3  8  1  0
  4  5  1  0
  4 25  1  0
  5  6  2  0
  5 26  1  0
  6  7  1  0
  6 12  1  0
  7  8  2  0
  7  9  1  0
  8 27  1  0
  9 10  1  0
  9 28  1  0
  9 29  1  0
 10 11  1  0
 10 30  1  0
 10 31  1  0
 11 12  1  0
 11 32  1  0
 11 33  1  0
 12 34  1  0
 12 35  1  0
 13 14  2  0
 13 18  1  0
 14 15  1  0
 14 36  1  0
 15 16  2  0
 15 37  1  0
 16 17  1  0
 16 21  1  0
 17 18  2  0
 17 19  1  0
 18 38  1  0
 19 20  1  0
 20 21  1  0
 20 39  1  0
 20 40  1  0
M  END

