
     RDKit          3D

 48 49  0  0  0  0  0  0  0  0999 V2000
    1.0567    0.3927    1.2033 C   0  0  0  0  0  0  0  0  0  0  0  0
    2.3525    0.0885    0.7657 O   0  0  0  0  0  0  0  0  0  0  0  0
    2.7898   -1.2010    1.1293 C   0  0  0  0  0  0  0  0  0  0  0  0
    4.1971   -1.3857    0.5706 C   0  0  0  0  0  0  0  0  0  0  0  0
    4.9278   -2.7148    0.8953 C   0  0  1  0  0  0  0  0  0  0  0  0
    5.2341   -2.7153    2.4192 C   0  0  0  0  0  0  0  0  0  0  0  0
    5.9568   -3.8712    2.9216 N   0  0  0  0  0  0  0  0  0  0  0  0
    5.3804   -4.8152    3.7232 C   0  0  0  0  0  0  0  0  0  0  0  0
    4.2019   -4.7920    4.0416 O   0  0  0  0  0  0  0  0  0  0  0  0
    6.3234   -5.9137    4.2252 C   0  0  0  0  0  0  0  0  0  0  0  0
    6.6770   -5.7548    5.6930 C   0  0  0  0  0  0  0  0  0  0  0  0
    5.6695   -5.6813    6.6700 C   0  0  0  0  0  0  0  0  0  0  0  0
    5.9881   -5.5406    8.0209 C   0  0  0  0  0  0  0  0  0  0  0  0
    7.3300   -5.4738    8.4096 C   0  0  0  0  0  0  0  0  0  0  0  0
    7.7352   -5.3022   10.1038 Cl  0  0  0  0  0  0  0  0  0  0  0  0
    8.3492   -5.5433    7.4582 C   0  0  0  0  0  0  0  0  0  0  0  0
    8.0140   -5.6814    6.1081 C   0  0  0  0  0  0  0  0  0  0  0  0
    4.0900   -3.9627    0.5207 C   0  0  0  0  0  0  0  0  0  0  0  0
    3.8819   -4.1312   -0.9903 C   0  0  0  0  0  0  0  0  0  0  0  0
    5.2218   -4.1767   -1.7356 C   0  0  0  0  0  0  0  0  0  0  0  0
    6.0848   -2.9505   -1.4139 C   0  0  0  0  0  0  0  0  0  0  0  0
    6.2602   -2.7616    0.1005 C   0  0  0  0  0  0  0  0  0  0  0  0
    0.8180    1.4136    0.8698 H   0  0  0  0  0  0  0  0  0  0  0  0
    0.9691    0.3546    2.3089 H   0  0  0  0  0  0  0  0  0  0  0  0
    0.2995   -0.3008    0.7823 H   0  0  0  0  0  0  0  0  0  0  0  0
    2.0967   -1.9666    0.7232 H   0  0  0  0  0  0  0  0  0  0  0  0
    2.7702   -1.3129    2.2332 H   0  0  0  0  0  0  0  0  0  0  0  0
    4.8105   -0.5447    0.9389 H   0  0  0  0  0  0  0  0  0  0  0  0
    4.1278   -1.2429   -0.5182 H   0  0  0  0  0  0  0  0  0  0  0  0
    4.2959   -2.6812    2.9891 H   0  0  0  0  0  0  0  0  0  0  0  0
    5.8089   -1.8043    2.6628 H   0  0  0  0  0  0  0  0  0  0  0  0
    6.9514   -3.9358    2.7476 H   0  0  0  0  0  0  0  0  0  0  0  0
    7.2423   -5.9585    3.6207 H   0  0  0  0  0  0  0  0  0  0  0  0
    5.7846   -6.8632    4.0729 H   0  0  0  0  0  0  0  0  0  0  0  0
    4.6240   -5.7192    6.3571 H   0  0  0  0  0  0  0  0  0  0  0  0
    5.2018   -5.4829    8.7755 H   0  0  0  0  0  0  0  0  0  0  0  0
    9.3928   -5.4895    7.7728 H   0  0  0  0  0  0  0  0  0  0  0  0
    8.8168   -5.7380    5.3671 H   0  0  0  0  0  0  0  0  0  0  0  0
    3.1246   -3.9499    1.0510 H   0  0  0  0  0  0  0  0  0  0  0  0
    4.6215   -4.8530    0.8985 H   0  0  0  0  0  0  0  0  0  0  0  0
    3.2672   -3.3033   -1.3867 H   0  0  0  0  0  0  0  0  0  0  0  0
    3.3084   -5.0535   -1.1828 H   0  0  0  0  0  0  0  0  0  0  0  0
    5.0581   -4.2550   -2.8236 H   0  0  0  0  0  0  0  0  0  0  0  0
    5.7670   -5.0919   -1.4374 H   0  0  0  0  0  0  0  0  0  0  0  0
    5.6233   -2.0508   -1.8563 H   0  0  0  0  0  0  0  0  0  0  0  0
    7.0758   -3.0443   -1.8893 H   0  0  0  0  0  0  0  0  0  0  0  0
    6.8443   -1.8464    0.3043 H   0  0  0  0  0  0  0  0  0  0  0  0
    6.8602   -3.6088    0.4794 H   0  0  0  0  0  0  0  0  0  0  0  0
  1  2  1  0
  1 23  1  0
  1 24  1  0
  1 25  1  0
  2  3  1  0
  3  4  1  0
  3 26  1  0
  3 27  1  0
  5  4  1  6
  4 28  1  0
  4 29  1  0
  5  6  1  0
  5 18  1  0
  5 22  1  0
  6  7  1  0
  6 30  1  0
  6 31  1  0
  7  8  1  0
  7 32  1  0
  8  9  2  0
  8 10  1  0
 10 11  1  0
 10 33  1  0
 10 34  1  0
 11 12  2  0
 11 17  1  0
 12 13  1  0
 12 35  1  0
 13 14  2  0
 13 36  1  0
 14 15  1  0
 14 16  1  0
 16 17  2  0
 16 37  1  0
 17 38  1  0
 18 19  1  0
 18 39  1  0
 18 40  1  0
 19 20  1  0
 19 41  1  0
 19 42  1  0
 20 21  1  0
 20 43  1  0
 20 44  1  0
 21 22  1  0
 21 45  1  0
 21 46  1  0
 22 47  1  0
 22 48  1  0
M  END

