
     RDKit          3D

 47 50  0  0  0  0  0  0  0  0999 V2000
    4.7669   -0.8250   -2.6408 C   0  0  0  0  0  0  0  0  0  0  0  0
    3.9552    0.0395   -1.6644 C   0  0  1  0  0  0  0  0  0  0  0  0
    3.1788    1.1297   -2.4410 C   0  0  0  0  0  0  0  0  0  0  0  0
    2.9734   -0.8492   -0.8685 C   0  0  0  0  0  0  0  0  0  0  0  0
    4.9251    0.7453   -0.7050 C   0  0  0  0  0  0  0  0  0  0  0  0
    6.1221    0.7843   -0.8963 O   0  0  0  0  0  0  0  0  0  0  0  0
    4.3690    1.4880    0.5418 C   0  0  1  0  0  0  0  0  0  0  0  0
    3.2749    1.4317    0.5816 H   0  0  0  0  0  0  0  0  0  0  0  0
    5.0149    0.9941    1.8773 C   0  0  1  0  0  0  0  0  0  0  0  0
    4.2173    0.7817    2.6042 H   0  0  0  0  0  0  0  0  0  0  0  0
    5.8836   -0.2613    1.7977 C   0  0  0  0  0  0  0  0  0  0  0  0
    5.5398   -1.3555    1.4245 O   0  0  0  0  0  0  0  0  0  0  0  0
    7.1559    0.0608    2.2900 N   0  0  0  0  0  0  0  0  0  0  0  0
    8.2337   -0.8665    2.3412 C   0  0  0  0  0  0  0  0  0  0  0  0
    8.1440   -2.0507    3.0808 C   0  0  0  0  0  0  0  0  0  0  0  0
    9.2136   -2.9473    3.1070 C   0  0  0  0  0  0  0  0  0  0  0  0
   10.3849   -2.6590    2.3992 C   0  0  0  0  0  0  0  0  0  0  0  0
   10.4863   -1.4816    1.6546 C   0  0  0  0  0  0  0  0  0  0  0  0
    9.4079   -0.6025    1.6227 C   0  0  0  0  0  0  0  0  0  0  0  0
    9.4877    0.5090    0.8883 F   0  0  0  0  0  0  0  0  0  0  0  0
    7.2825    1.4104    2.6769 C   0  0  0  0  0  0  0  0  0  0  0  0
    8.2669    1.8993    3.1658 O   0  0  0  0  0  0  0  0  0  0  0  0
    5.9691    2.1063    2.3631 C   0  0  1  0  0  0  0  0  0  0  0  0
    5.6071    2.6210    3.2641 H   0  0  0  0  0  0  0  0  0  0  0  0
    6.0624    3.1085    1.1818 C   0  0  2  0  0  0  0  0  0  0  0  0
    6.8971    2.7896    0.5209 H   0  0  0  0  0  0  0  0  0  0  0  0
    6.1771    4.5708    1.5211 C   0  0  0  0  0  0  0  0  0  0  0  0
    5.4710    5.4622    0.7985 C   0  0  0  0  0  0  0  0  0  0  0  0
    4.5069    5.0020   -0.1922 C   0  0  0  0  0  0  0  0  0  0  0  0
    4.1493    3.7562   -0.2748 N   0  0  0  0  0  0  0  0  0  0  0  0
    4.7663    2.8880    0.5248 N   0  0  0  0  0  0  0  0  0  0  0  0
    4.0941   -1.3026   -3.3704 H   0  0  0  0  0  0  0  0  0  0  0  0
    5.3158   -1.6147   -2.1055 H   0  0  0  0  0  0  0  0  0  0  0  0
    5.5051   -0.2210   -3.1867 H   0  0  0  0  0  0  0  0  0  0  0  0
    2.4362    0.6513   -3.1002 H   0  0  0  0  0  0  0  0  0  0  0  0
    3.8586    1.7279   -3.0672 H   0  0  0  0  0  0  0  0  0  0  0  0
    2.6498    1.8267   -1.7738 H   0  0  0  0  0  0  0  0  0  0  0  0
    2.3757   -1.4518   -1.5708 H   0  0  0  0  0  0  0  0  0  0  0  0
    2.2639   -0.2578   -0.2686 H   0  0  0  0  0  0  0  0  0  0  0  0
    3.5106   -1.5327   -0.1939 H   0  0  0  0  0  0  0  0  0  0  0  0
    7.2256   -2.2630    3.6299 H   0  0  0  0  0  0  0  0  0  0  0  0
    9.1329   -3.8703    3.6848 H   0  0  0  0  0  0  0  0  0  0  0  0
   11.2265   -3.3552    2.4229 H   0  0  0  0  0  0  0  0  0  0  0  0
   11.3840   -1.2314    1.0862 H   0  0  0  0  0  0  0  0  0  0  0  0
    6.8794    4.8704    2.3032 H   0  0  0  0  0  0  0  0  0  0  0  0
    5.5697    6.5362    0.9769 H   0  0  0  0  0  0  0  0  0  0  0  0
    3.9711    5.7062   -0.8337 H   0  0  0  0  0  0  0  0  0  0  0  0
  1  2  1  0
  1 32  1  0
  1 33  1  0
  1 34  1  0
  2  3  1  0
  2  4  1  0
  2  5  1  1
  3 35  1  0
  3 36  1  0
  3 37  1  0
  4 38  1  0
  4 39  1  0
  4 40  1  0
  5  6  2  0
  5  7  1  0
  7  8  1  1
  7  9  1  0
  7 31  1  0
  9 10  1  1
  9 11  1  0
  9 23  1  0
 11 12  2  0
 11 13  1  0
 13 14  1  0
 13 21  1  0
 14 15  2  0
 14 19  1  0
 15 16  1  0
 15 41  1  0
 16 17  2  0
 16 42  1  0
 17 18  1  0
 17 43  1  0
 18 19  2  0
 18 44  1  0
 19 20  1  0
 21 22  2  0
 21 23  1  0
 23 24  1  1
 23 25  1  0
 25 26  1  6
 25 27  1  0
 25 31  1  0
 27 28  2  0
 27 45  1  0
 28 29  1  0
 28 46  1  0
 29 30  2  0
 29 47  1  0
 30 31  1  0
M  END

