
     RDKit          3D

 34 34  0  0  0  0  0  0  0  0999 V2000
    6.6337   -0.0151   -4.4449 C   0  0  0  0  0  0  0  0  0  0  0  0
    5.8418    0.6391   -3.4454 O   0  0  0  0  0  0  0  0  0  0  0  0
    4.9686   -0.1783   -2.3684 P   0  0  1  0  0  0  0  0  0  0  0  0
    5.5707   -1.3398   -1.6771 O   0  0  0  0  0  0  0  0  0  0  0  0
    4.5709    1.0303   -1.3802 O   0  0  0  0  0  0  0  0  0  0  0  0
    3.5939   -0.4990   -3.1720 O   0  0  0  0  0  0  0  0  0  0  0  0
    2.9730   -1.7819   -3.0862 C   0  0  0  0  0  0  0  0  0  0  0  0
    3.3359   -2.6437   -4.3009 C   0  0  1  0  0  0  0  0  0  0  0  0
    2.8697   -2.2252   -5.2073 H   0  0  0  0  0  0  0  0  0  0  0  0
    4.7378   -2.6757   -4.5007 O   0  0  0  0  0  0  0  0  0  0  0  0
    5.3233   -3.8931   -3.9953 C   0  0  2  0  0  0  0  0  0  0  0  0
    6.0570   -4.5959   -5.1305 C   0  0  0  0  0  0  0  0  0  0  0  0
    4.1448   -4.6982   -3.4087 C   0  0  0  0  0  0  0  0  0  0  0  0
    2.9074   -4.1040   -4.1081 C   0  0  2  0  0  0  0  0  0  0  0  0
    1.9971   -4.1882   -3.4794 H   0  0  0  0  0  0  0  0  0  0  0  0
    2.6670   -4.6652   -5.3809 O   0  0  0  0  0  0  0  0  0  0  0  0
    1.9819   -5.9002   -5.3743 C   0  0  0  0  0  0  0  0  0  0  0  0
    1.7355   -6.2819   -6.7325 N   0  0  0  0  0  0  0  0  0  0  0  0
    7.0315    0.7751   -5.0957 H   0  0  0  0  0  0  0  0  0  0  0  0
    6.0275   -0.7235   -5.0266 H   0  0  0  0  0  0  0  0  0  0  0  0
    7.4686   -0.5574   -3.9737 H   0  0  0  0  0  0  0  0  0  0  0  0
    4.4389    1.8659   -1.8515 H   0  0  0  0  0  0  0  0  0  0  0  0
    1.8844   -1.6133   -3.0568 H   0  0  0  0  0  0  0  0  0  0  0  0
    3.2808   -2.2794   -2.1532 H   0  0  0  0  0  0  0  0  0  0  0  0
    6.0276   -3.6078   -3.1966 H   0  0  0  0  0  0  0  0  0  0  0  0
    5.3454   -4.8972   -5.9143 H   0  0  0  0  0  0  0  0  0  0  0  0
    6.5810   -5.4916   -4.7586 H   0  0  0  0  0  0  0  0  0  0  0  0
    6.8067   -3.9240   -5.5763 H   0  0  0  0  0  0  0  0  0  0  0  0
    4.0719   -4.5455   -2.3211 H   0  0  0  0  0  0  0  0  0  0  0  0
    4.2411   -5.7794   -3.5848 H   0  0  0  0  0  0  0  0  0  0  0  0
    1.0659   -5.7788   -4.7446 H   0  0  0  0  0  0  0  0  0  0  0  0
    2.5912   -6.6955   -4.8988 H   0  0  0  0  0  0  0  0  0  0  0  0
    0.9515   -5.7738   -7.1383 H   0  0  0  0  0  0  0  0  0  0  0  0
    1.5578   -7.2792   -6.8176 H   0  0  0  0  0  0  0  0  0  0  0  0
  1  2  1  0
  1 19  1  0
  1 20  1  0
  1 21  1  0
  3  2  1  6
  3  4  2  0
  3  5  1  0
  3  6  1  0
  5 22  1  0
  6  7  1  0
  7  8  1  0
  7 23  1  0
  7 24  1  0
  8  9  1  6
  8 10  1  0
  8 14  1  0
 10 11  1  0
 11 12  1  0
 11 13  1  0
 11 25  1  1
 12 26  1  0
 12 27  1  0
 12 28  1  0
 13 14  1  0
 13 29  1  0
 13 30  1  0
 14 15  1  1
 14 16  1  0
 16 17  1  0
 17 18  1  0
 17 31  1  0
 17 32  1  0
 18 33  1  0
 18 34  1  0
M  END

