
     RDKit          3D

 40 42  0  0  0  0  0  0  0  0999 V2000
    4.0833   -9.0973    1.5813 C   0  0  0  0  0  0  0  0  0  0  0  0
    3.5356   -7.7618    2.0162 C   0  0  0  0  0  0  0  0  0  0  0  0
    3.9504   -6.5706    1.3971 C   0  0  0  0  0  0  0  0  0  0  0  0
    3.4517   -5.3320    1.7985 C   0  0  0  0  0  0  0  0  0  0  0  0
    3.9104   -4.1903    1.1818 O   0  0  0  0  0  0  0  0  0  0  0  0
    3.4905   -3.8365   -0.1578 C   0  0  2  0  0  0  0  0  0  0  0  0
    3.4296   -2.7347   -0.1313 H   0  0  0  0  0  0  0  0  0  0  0  0
    2.1489   -4.3961   -0.6007 C   0  0  0  0  0  0  0  0  0  0  0  0
    4.6195   -4.1690   -1.1544 C   0  0  0  0  0  0  0  0  0  0  0  0
    4.4637   -4.1471   -2.3444 O   0  0  0  0  0  0  0  0  0  0  0  0
    5.7996   -4.4420   -0.5785 O   0  0  0  0  0  0  0  0  0  0  0  0
    2.5249   -5.2178    2.8677 C   0  0  0  0  0  0  0  0  0  0  0  0
    1.9443   -3.9818    3.3959 C   0  0  0  0  0  0  0  0  0  0  0  0
    2.3536   -2.6086    2.9684 C   0  0  0  0  0  0  0  0  0  0  0  0
    3.6518   -2.1270    3.2117 C   0  0  0  0  0  0  0  0  0  0  0  0
    3.9914   -0.8128    2.8917 C   0  0  0  0  0  0  0  0  0  0  0  0
    3.0440    0.0416    2.3139 C   0  0  0  0  0  0  0  0  0  0  0  0
    1.7515   -0.4261    2.0690 C   0  0  0  0  0  0  0  0  0  0  0  0
    1.4060   -1.7406    2.4024 C   0  0  0  0  0  0  0  0  0  0  0  0
    0.9823   -4.0791    4.3578 C   0  0  0  0  0  0  0  0  0  0  0  0
    0.5269   -5.3412    4.9257 C   0  0  0  0  0  0  0  0  0  0  0  0
   -0.3193   -5.4836    5.7668 O   0  0  0  0  0  0  0  0  0  0  0  0
    1.1744   -6.4715    4.4439 O   0  0  0  0  0  0  0  0  0  0  0  0
    2.1019   -6.4389    3.4558 C   0  0  0  0  0  0  0  0  0  0  0  0
    2.5983   -7.6790    3.0477 C   0  0  0  0  0  0  0  0  0  0  0  0
    4.7715   -8.9971    0.7301 H   0  0  0  0  0  0  0  0  0  0  0  0
    3.2709   -9.7811    1.2857 H   0  0  0  0  0  0  0  0  0  0  0  0
    4.6296   -9.5857    2.4052 H   0  0  0  0  0  0  0  0  0  0  0  0
    4.6806   -6.6028    0.5863 H   0  0  0  0  0  0  0  0  0  0  0  0
    1.9515   -4.0326   -1.6183 H   0  0  0  0  0  0  0  0  0  0  0  0
    1.3439   -4.0545    0.0644 H   0  0  0  0  0  0  0  0  0  0  0  0
    2.1495   -5.4950   -0.6279 H   0  0  0  0  0  0  0  0  0  0  0  0
    5.6648   -4.3782    0.3866 H   0  0  0  0  0  0  0  0  0  0  0  0
    4.3965   -2.7874    3.6612 H   0  0  0  0  0  0  0  0  0  0  0  0
    5.0019   -0.4501    3.0964 H   0  0  0  0  0  0  0  0  0  0  0  0
    3.3144    1.0697    2.0605 H   0  0  0  0  0  0  0  0  0  0  0  0
    1.0035    0.2334    1.6218 H   0  0  0  0  0  0  0  0  0  0  0  0
    0.3906   -2.1005    2.2177 H   0  0  0  0  0  0  0  0  0  0  0  0
    0.5244   -3.1878    4.7879 H   0  0  0  0  0  0  0  0  0  0  0  0
    2.2253   -8.5704    3.5555 H   0  0  0  0  0  0  0  0  0  0  0  0
  1  2  1  0
  1 26  1  0
  1 27  1  0
  1 28  1  0
  2  3  2  0
  2 25  1  0
  3  4  1  0
  3 29  1  0
  4  5  1  0
  4 12  2  0
  5  6  1  0
  6  7  1  1
  6  8  1  0
  6  9  1  0
  8 30  1  0
  8 31  1  0
  8 32  1  0
  9 10  2  0
  9 11  1  0
 11 33  1  0
 12 13  1  0
 12 24  1  0
 13 14  1  0
 13 20  2  0
 14 15  2  0
 14 19  1  0
 15 16  1  0
 15 34  1  0
 16 17  2  0
 16 35  1  0
 17 18  1  0
 17 36  1  0
 18 19  2  0
 18 37  1  0
 19 38  1  0
 20 21  1  0
 20 39  1  0
 21 22  2  0
 21 23  1  0
 23 24  1  0
 24 25  2  0
 25 40  1  0
M  END

