
     RDKit          3D

 60 62  0  0  0  0  0  0  0  0999 V2000
    7.1248    2.8639   -4.2832 C   0  0  0  0  0  0  0  0  0  0  0  0
    5.9927    2.1405   -3.5515 C   0  0  0  0  0  0  0  0  0  0  0  0
    6.2591    0.6418   -3.4146 C   0  0  0  0  0  0  0  0  0  0  0  0
    4.9155   -0.1956   -2.5356 S   0  0  1  0  0  0  0  0  0  0  0  0
    4.8837    0.3334   -1.1671 O   0  0  0  0  0  0  0  0  0  0  0  0
    3.7202   -0.1178   -3.3952 O   0  0  0  0  0  0  0  0  0  0  0  0
    5.4162   -1.8062   -2.4907 N   0  0  0  0  0  0  0  0  0  0  0  0
    5.9395   -2.3431   -1.2242 C   0  0  0  0  0  0  0  0  0  0  0  0
    4.8449   -3.0249   -0.3969 C   0  0  0  0  0  0  0  0  0  0  0  0
    4.0678   -4.0570   -1.2250 C   0  0  0  0  0  0  0  0  0  0  0  0
    3.5269   -3.4282   -2.5244 C   0  0  2  0  0  0  0  0  0  0  0  0
    2.8503   -4.4609   -3.4236 C   0  0  0  0  0  0  0  0  0  0  0  0
    3.4873   -5.3606   -3.9431 O   0  0  0  0  0  0  0  0  0  0  0  0
    1.5006   -4.2405   -3.6091 N   0  0  0  0  0  0  0  0  0  0  0  0
    0.5812   -4.9208   -4.4371 C   0  0  0  0  0  0  0  0  0  0  0  0
    0.9443   -6.1018   -5.1117 C   0  0  0  0  0  0  0  0  0  0  0  0
    0.0131   -6.7789   -5.8975 C   0  0  0  0  0  0  0  0  0  0  0  0
   -1.2994   -6.3135   -6.0142 C   0  0  0  0  0  0  0  0  0  0  0  0
   -1.6662   -5.1510   -5.3429 C   0  0  0  0  0  0  0  0  0  0  0  0
   -0.7428   -4.4218   -4.5755 C   0  0  0  0  0  0  0  0  0  0  0  0
   -1.3043   -3.1873   -3.9088 C   0  0  0  0  0  0  0  0  0  0  0  0
   -2.4475   -3.1665   -3.4900 O   0  0  0  0  0  0  0  0  0  0  0  0
   -0.4536   -2.0946   -3.8362 N   0  0  0  0  0  0  0  0  0  0  0  0
   -0.6923   -0.8276   -3.2530 C   0  0  0  0  0  0  0  0  0  0  0  0
    0.3896    0.0710   -3.2022 C   0  0  0  0  0  0  0  0  0  0  0  0
    0.2318    1.3295   -2.6261 C   0  0  0  0  0  0  0  0  0  0  0  0
   -0.9994    1.7178   -2.0930 C   0  0  0  0  0  0  0  0  0  0  0  0
   -2.0713    0.8216   -2.1443 C   0  0  0  0  0  0  0  0  0  0  0  0
   -3.4266    1.2390   -1.6257 C   0  0  1  0  0  0  0  0  0  0  0  0
   -3.3290    2.1791   -0.6675 F   0  0  0  0  0  0  0  0  0  0  0  0
   -4.1913    1.7602   -2.6061 F   0  0  0  0  0  0  0  0  0  0  0  0
   -4.1094    0.2046   -1.1074 F   0  0  0  0  0  0  0  0  0  0  0  0
   -1.9324   -0.4485   -2.7153 C   0  0  0  0  0  0  0  0  0  0  0  0
    4.6875   -2.7774   -3.3078 C   0  0  0  0  0  0  0  0  0  0  0  0
    6.9080    3.9398   -4.3689 H   0  0  0  0  0  0  0  0  0  0  0  0
    7.2647    2.4696   -5.3032 H   0  0  0  0  0  0  0  0  0  0  0  0
    8.0836    2.7587   -3.7493 H   0  0  0  0  0  0  0  0  0  0  0  0
    5.0404    2.2811   -4.0881 H   0  0  0  0  0  0  0  0  0  0  0  0
    5.8545    2.5659   -2.5444 H   0  0  0  0  0  0  0  0  0  0  0  0
    7.1705    0.4312   -2.8338 H   0  0  0  0  0  0  0  0  0  0  0  0
    6.3381    0.1372   -4.3898 H   0  0  0  0  0  0  0  0  0  0  0  0
    6.4049   -1.5272   -0.6566 H   0  0  0  0  0  0  0  0  0  0  0  0
    6.7325   -3.0668   -1.4848 H   0  0  0  0  0  0  0  0  0  0  0  0
    4.1594   -2.2463   -0.0222 H   0  0  0  0  0  0  0  0  0  0  0  0
    5.2990   -3.5068    0.4848 H   0  0  0  0  0  0  0  0  0  0  0  0
    3.2378   -4.4755   -0.6324 H   0  0  0  0  0  0  0  0  0  0  0  0
    4.7213   -4.9038   -1.4980 H   0  0  0  0  0  0  0  0  0  0  0  0
    2.8154   -2.6257   -2.2654 H   0  0  0  0  0  0  0  0  0  0  0  0
    1.1095   -3.4918   -3.0495 H   0  0  0  0  0  0  0  0  0  0  0  0
    1.9597   -6.4736   -5.0005 H   0  0  0  0  0  0  0  0  0  0  0  0
    0.3209   -7.6916   -6.4143 H   0  0  0  0  0  0  0  0  0  0  0  0
   -2.0314   -6.8541   -6.6183 H   0  0  0  0  0  0  0  0  0  0  0  0
   -2.6882   -4.7717   -5.3985 H   0  0  0  0  0  0  0  0  0  0  0  0
    0.3954   -2.1481   -4.3889 H   0  0  0  0  0  0  0  0  0  0  0  0
    1.3730   -0.2135   -3.5865 H   0  0  0  0  0  0  0  0  0  0  0  0
    1.0905    2.0030   -2.5831 H   0  0  0  0  0  0  0  0  0  0  0  0
   -1.1252    2.6988   -1.6327 H   0  0  0  0  0  0  0  0  0  0  0  0
   -2.7659   -1.1452   -2.7399 H   0  0  0  0  0  0  0  0  0  0  0  0
    4.3161   -2.2801   -4.2122 H   0  0  0  0  0  0  0  0  0  0  0  0
    5.3913   -3.5656   -3.6218 H   0  0  0  0  0  0  0  0  0  0  0  0
  1  2  1  0
  1 35  1  0
  1 36  1  0
  1 37  1  0
  2  3  1  0
  2 38  1  0
  2 39  1  0
  4  3  1  6
  3 40  1  0
  3 41  1  0
  4  5  2  0
  4  6  2  0
  4  7  1  0
  7  8  1  0
  7 34  1  0
  8  9  1  0
  8 42  1  0
  8 43  1  0
  9 10  1  0
  9 44  1  0
  9 45  1  0
 10 11  1  0
 10 46  1  0
 10 47  1  0
 11 12  1  0
 11 34  1  0
 11 48  1  1
 12 13  2  0
 12 14  1  0
 14 15  1  0
 14 49  1  0
 15 16  2  0
 15 20  1  0
 16 17  1  0
 16 50  1  0
 17 18  2  0
 17 51  1  0
 18 19  1  0
 18 52  1  0
 19 20  2  0
 19 53  1  0
 20 21  1  0
 21 22  2  0
 21 23  1  0
 23 24  1  0
 23 54  1  0
 24 25  2  0
 24 33  1  0
 25 26  1  0
 25 55  1  0
 26 27  2  0
 26 56  1  0
 27 28  1  0
 27 57  1  0
 28 29  1  0
 28 33  2  0
 29 30  1  1
 29 31  1  0
 29 32  1  0
 33 58  1  0
 34 59  1  0
 34 60  1  0
M  END

