
     RDKit          3D

 37 38  0  0  0  0  0  0  0  0999 V2000
    2.6437   -1.1475    0.8367 C   0  0  0  0  0  0  0  0  0  0  0  0
    3.2159    0.0389    0.3349 O   0  0  0  0  0  0  0  0  0  0  0  0
    3.6375    0.0763   -0.9501 C   0  0  0  0  0  0  0  0  0  0  0  0
    3.5535   -0.9894   -1.8565 C   0  0  0  0  0  0  0  0  0  0  0  0
    4.0101   -0.8758   -3.1733 C   0  0  0  0  0  0  0  0  0  0  0  0
    4.5732    0.3287   -3.6188 C   0  0  0  0  0  0  0  0  0  0  0  0
    5.0591    0.5310   -4.9252 N   0  0  0  0  0  0  0  0  0  0  0  0
    5.1129   -0.3577   -5.9606 C   0  0  0  0  0  0  0  0  0  0  0  0
    4.6935   -1.5024   -5.9400 O   0  0  0  0  0  0  0  0  0  0  0  0
    5.7146    0.2092   -7.2585 C   0  0  0  0  0  0  0  0  0  0  0  0
    6.8957    0.9927   -7.1132 O   0  0  0  0  0  0  0  0  0  0  0  0
    6.6113    2.2486   -6.6165 N   0  0  0  0  0  0  0  0  0  0  0  0
    7.6056    3.0648   -6.5879 C   0  0  0  0  0  0  0  0  0  0  0  0
    9.0099    2.9455   -6.9956 C   0  0  0  0  0  0  0  0  0  0  0  0
    9.6184    1.7726   -7.4946 C   0  0  0  0  0  0  0  0  0  0  0  0
   10.9648    1.7683   -7.8549 C   0  0  0  0  0  0  0  0  0  0  0  0
   11.7260    2.9345   -7.7235 C   0  0  0  0  0  0  0  0  0  0  0  0
   13.4098    2.9239   -8.1773 Cl  0  0  0  0  0  0  0  0  0  0  0  0
   11.1501    4.1098   -7.2292 C   0  0  0  0  0  0  0  0  0  0  0  0
    9.8055    4.1049   -6.8703 C   0  0  0  0  0  0  0  0  0  0  0  0
    4.6643    1.4061   -2.7184 C   0  0  0  0  0  0  0  0  0  0  0  0
    4.2053    1.2836   -1.4121 C   0  0  0  0  0  0  0  0  0  0  0  0
    4.3341    2.6419   -0.3236 Cl  0  0  0  0  0  0  0  0  0  0  0  0
    2.3805   -0.9466    1.8837 H   0  0  0  0  0  0  0  0  0  0  0  0
    3.3533   -1.9939    0.8015 H   0  0  0  0  0  0  0  0  0  0  0  0
    1.7283   -1.4285    0.2850 H   0  0  0  0  0  0  0  0  0  0  0  0
    3.1214   -1.9390   -1.5397 H   0  0  0  0  0  0  0  0  0  0  0  0
    3.9321   -1.7147   -3.8605 H   0  0  0  0  0  0  0  0  0  0  0  0
    5.4185    1.4612   -5.1392 H   0  0  0  0  0  0  0  0  0  0  0  0
    4.9452    0.7895   -7.7978 H   0  0  0  0  0  0  0  0  0  0  0  0
    6.0046   -0.6532   -7.8710 H   0  0  0  0  0  0  0  0  0  0  0  0
    7.3152    4.0398   -6.1776 H   0  0  0  0  0  0  0  0  0  0  0  0
    9.0315    0.8634   -7.5949 H   0  0  0  0  0  0  0  0  0  0  0  0
   11.4311    0.8596   -8.2389 H   0  0  0  0  0  0  0  0  0  0  0  0
   11.7545    5.0125   -7.1290 H   0  0  0  0  0  0  0  0  0  0  0  0
    9.3573    5.0239   -6.4830 H   0  0  0  0  0  0  0  0  0  0  0  0
    5.0995    2.3572   -3.0325 H   0  0  0  0  0  0  0  0  0  0  0  0
  1  2  1  0
  1 24  1  0
  1 25  1  0
  1 26  1  0
  2  3  1  0
  3  4  2  0
  3 22  1  0
  4  5  1  0
  4 27  1  0
  5  6  2  0
  5 28  1  0
  6  7  1  0
  6 21  1  0
  7  8  1  0
  7 29  1  0
  8  9  2  0
  8 10  1  0
 10 11  1  0
 10 30  1  0
 10 31  1  0
 11 12  1  0
 12 13  2  0
 13 14  1  0
 13 32  1  0
 14 15  2  0
 14 20  1  0
 15 16  1  0
 15 33  1  0
 16 17  2  0
 16 34  1  0
 17 18  1  0
 17 19  1  0
 19 20  2  0
 19 35  1  0
 20 36  1  0
 21 22  2  0
 21 37  1  0
 22 23  1  0
M  END

