
     RDKit          3D

 49 50  0  0  0  0  0  0  0  0999 V2000
    2.9452   -3.2104    0.3311 C   0  0  0  0  0  0  0  0  0  0  0  0
    3.7406   -2.2426   -0.3538 O   0  0  0  0  0  0  0  0  0  0  0  0
    4.3653   -1.3333    0.4147 C   0  0  0  0  0  0  0  0  0  0  0  0
    4.2769   -1.3104    1.6208 O   0  0  0  0  0  0  0  0  0  0  0  0
    5.1749   -0.3640   -0.3871 C   0  0  0  0  0  0  0  0  0  0  0  0
    5.8674    0.6399    0.3094 C   0  0  0  0  0  0  0  0  0  0  0  0
    6.6483    1.5835   -0.3667 C   0  0  0  0  0  0  0  0  0  0  0  0
    7.3949    2.6701    0.3869 C   0  0  0  0  0  0  0  0  0  0  0  0
    8.9092    2.5817    0.2796 C   0  0  0  0  0  0  0  0  0  0  0  0
    9.6688    3.6828   -0.1225 C   0  0  0  0  0  0  0  0  0  0  0  0
   11.0727    3.6173   -0.2035 C   0  0  0  0  0  0  0  0  0  0  0  0
   11.8119    4.8405   -0.6423 C   0  0  0  0  0  0  0  0  0  0  0  0
   11.2276    5.8748   -0.9169 O   0  0  0  0  0  0  0  0  0  0  0  0
   13.3325    4.8200   -0.7583 C   0  0  0  0  0  0  0  0  0  0  0  0
   13.8181    6.0526   -1.1743 O   0  0  0  0  0  0  0  0  0  0  0  0
   11.7234    2.4248    0.1240 C   0  0  0  0  0  0  0  0  0  0  0  0
   10.9806    1.3039    0.5291 C   0  0  0  0  0  0  0  0  0  0  0  0
   11.7264    0.0531    0.8647 C   0  0  0  0  0  0  0  0  0  0  0  0
   12.9429   -0.0003    0.7988 O   0  0  0  0  0  0  0  0  0  0  0  0
   10.9763   -1.2019    1.3011 C   0  0  0  0  0  0  0  0  0  0  0  0
   11.8554   -2.2447    1.5595 O   0  0  0  0  0  0  0  0  0  0  0  0
    9.5829    1.3916    0.6017 C   0  0  0  0  0  0  0  0  0  0  0  0
    6.7241    1.5045   -1.7650 C   0  0  0  0  0  0  0  0  0  0  0  0
    6.0363    0.5098   -2.4719 C   0  0  0  0  0  0  0  0  0  0  0  0
    6.1670    0.4990   -3.9628 C   0  0  0  0  0  0  0  0  0  0  0  0
    6.8260    1.2928   -4.5934 O   0  0  0  0  0  0  0  0  0  0  0  0
    5.4670   -0.4974   -4.5333 O   0  0  0  0  0  0  0  0  0  0  0  0
    5.5350   -0.5831   -5.9569 C   0  0  0  0  0  0  0  0  0  0  0  0
    5.2580   -0.4304   -1.7819 C   0  0  0  0  0  0  0  0  0  0  0  0
    2.5193   -3.8594   -0.4437 H   0  0  0  0  0  0  0  0  0  0  0  0
    2.1431   -2.7213    0.9044 H   0  0  0  0  0  0  0  0  0  0  0  0
    3.5607   -3.7992    1.0279 H   0  0  0  0  0  0  0  0  0  0  0  0
    5.7740    0.6649    1.3978 H   0  0  0  0  0  0  0  0  0  0  0  0
    7.1066    2.6272    1.4504 H   0  0  0  0  0  0  0  0  0  0  0  0
    7.0740    3.6584    0.0211 H   0  0  0  0  0  0  0  0  0  0  0  0
    9.1878    4.6281   -0.3848 H   0  0  0  0  0  0  0  0  0  0  0  0
   13.6134    4.0084   -1.4618 H   0  0  0  0  0  0  0  0  0  0  0  0
   13.7512    4.5261    0.2268 H   0  0  0  0  0  0  0  0  0  0  0  0
   13.0304    6.6148   -1.2920 H   0  0  0  0  0  0  0  0  0  0  0  0
   12.8083    2.3203    0.0767 H   0  0  0  0  0  0  0  0  0  0  0  0
   10.2506   -1.4655    0.5034 H   0  0  0  0  0  0  0  0  0  0  0  0
   10.3682   -0.9474    2.1946 H   0  0  0  0  0  0  0  0  0  0  0  0
   12.7444   -1.8822    1.3890 H   0  0  0  0  0  0  0  0  0  0  0  0
    8.9941    0.5242    0.9086 H   0  0  0  0  0  0  0  0  0  0  0  0
    7.3225    2.2184   -2.3362 H   0  0  0  0  0  0  0  0  0  0  0  0
    4.9130   -1.4405   -6.2415 H   0  0  0  0  0  0  0  0  0  0  0  0
    6.5728   -0.7357   -6.2896 H   0  0  0  0  0  0  0  0  0  0  0  0
    5.1532    0.3383   -6.4220 H   0  0  0  0  0  0  0  0  0  0  0  0
    4.7225   -1.2052   -2.3275 H   0  0  0  0  0  0  0  0  0  0  0  0
  1  2  1  0
  1 30  1  0
  1 31  1  0
  1 32  1  0
  2  3  1  0
  3  4  2  0
  3  5  1  0
  5  6  2  0
  5 29  1  0
  6  7  1  0
  6 33  1  0
  7  8  1  0
  7 23  2  0
  8  9  1  0
  8 34  1  0
  8 35  1  0
  9 10  2  0
  9 22  1  0
 10 11  1  0
 10 36  1  0
 11 12  1  0
 11 16  2  0
 12 13  2  0
 12 14  1  0
 14 15  1  0
 14 37  1  0
 14 38  1  0
 15 39  1  0
 16 17  1  0
 16 40  1  0
 17 18  1  0
 17 22  2  0
 18 19  2  0
 18 20  1  0
 20 21  1  0
 20 41  1  0
 20 42  1  0
 21 43  1  0
 22 44  1  0
 23 24  1  0
 23 45  1  0
 24 25  1  0
 24 29  2  0
 25 26  2  0
 25 27  1  0
 27 28  1  0
 28 46  1  0
 28 47  1  0
 28 48  1  0
 29 49  1  0
M  END

