
     RDKit          3D

 89 91  0  0  0  0  0  0  0  0999 V2000
    3.5531  -14.8868   -9.0489 C   0  0  0  0  0  0  0  0  0  0  0  0
    4.9705  -14.7884   -8.5367 C   0  0  0  0  0  0  0  0  0  0  0  0
    5.5362  -13.6541   -8.0836 C   0  0  0  0  0  0  0  0  0  0  0  0
    4.9295  -12.2823   -7.9596 C   0  0  0  0  0  0  0  0  0  0  0  0
    5.0023  -11.7433   -6.5116 C   0  0  0  0  0  0  0  0  0  0  0  0
    4.4890  -10.3299   -6.3273 C   0  0  0  0  0  0  0  0  0  0  0  0
    5.2056   -9.2617   -7.1190 C   0  0  0  0  0  0  0  0  0  0  0  0
    3.4592  -10.0854   -5.4922 C   0  0  0  0  0  0  0  0  0  0  0  0
    2.8627   -8.7539   -5.1421 C   0  0  0  0  0  0  0  0  0  0  0  0
    1.4237   -8.3762   -5.6844 C   0  0  2  0  0  0  0  0  0  0  0  0
    1.0853   -7.1266   -5.1596 O   0  0  0  0  0  0  0  0  0  0  0  0
    0.4360   -9.4273   -5.2041 C   0  0  0  0  0  0  0  0  0  0  0  0
   -0.0206   -9.3484   -4.0575 O   0  0  0  0  0  0  0  0  0  0  0  0
    0.1206  -10.5449   -6.0865 C   0  0  0  0  0  0  0  0  0  0  0  0
   -0.6574  -11.5964   -5.5598 C   0  0  0  0  0  0  0  0  0  0  0  0
   -1.1380  -11.5741   -4.3287 O   0  0  0  0  0  0  0  0  0  0  0  0
   -0.9358  -12.7285   -6.3616 C   0  0  0  0  0  0  0  0  0  0  0  0
   -0.4719  -12.8405   -7.6542 C   0  0  0  0  0  0  0  0  0  0  0  0
   -0.8496  -14.1138   -8.3873 C   0  0  0  0  0  0  0  0  0  0  0  0
    0.3149  -11.7747   -8.2377 C   0  0  0  0  0  0  0  0  0  0  0  0
    0.8367  -11.7995   -9.5789 C   0  0  0  0  0  0  0  0  0  0  0  0
    0.6827  -12.8607  -10.4057 O   0  0  0  0  0  0  0  0  0  0  0  0
    1.5516  -10.7329  -10.1216 C   0  0  0  0  0  0  0  0  0  0  0  0
    2.1004  -10.7822  -11.5266 C   0  0  0  0  0  0  0  0  0  0  0  0
    1.7700   -9.5831   -9.3293 C   0  0  0  0  0  0  0  0  0  0  0  0
    2.4758   -8.5582   -9.8377 O   0  0  0  0  0  0  0  0  0  0  0  0
    1.3054   -9.4992   -8.0057 C   0  0  0  0  0  0  0  0  0  0  0  0
    0.5943  -10.6073   -7.4436 C   0  0  0  0  0  0  0  0  0  0  0  0
    1.4805   -8.2725   -7.2171 C   0  0  0  0  0  0  0  0  0  0  0  0
    1.6843   -7.1605   -7.6814 O   0  0  0  0  0  0  0  0  0  0  0  0
    5.7145  -16.1096   -8.5852 C   0  0  0  0  0  0  0  0  0  0  0  0
    7.1592  -16.1257   -8.0842 C   0  0  0  0  0  0  0  0  0  0  0  0
    7.7871  -17.4885   -8.1779 C   0  0  0  0  0  0  0  0  0  0  0  0
    9.0342  -17.8791   -7.8313 C   0  0  0  0  0  0  0  0  0  0  0  0
    9.4658  -19.3203   -8.0101 C   0  0  0  0  0  0  0  0  0  0  0  0
    9.6551  -20.0993   -6.6771 C   0  0  0  0  0  0  0  0  0  0  0  0
   10.9551  -20.8960   -6.6605 C   0  0  1  0  0  0  0  0  0  0  0  0
   10.9443  -21.6358   -7.4865 H   0  0  0  0  0  0  0  0  0  0  0  0
   12.0040  -19.9623   -6.8922 O   0  0  0  0  0  0  0  0  0  0  0  0
   11.2628  -21.6942   -5.3664 C   0  0  1  0  0  0  0  0  0  0  0  0
   11.2438  -20.8122   -4.1139 C   0  0  0  0  0  0  0  0  0  0  0  0
   10.3409  -22.9075   -5.2210 C   0  0  0  0  0  0  0  0  0  0  0  0
   12.6086  -22.1437   -5.6148 O   0  0  0  0  0  0  0  0  0  0  0  0
   10.0120  -16.8778   -7.2669 C   0  0  0  0  0  0  0  0  0  0  0  0
    9.7337  -15.7086   -7.1163 O   0  0  0  0  0  0  0  0  0  0  0  0
   11.2378  -17.3067   -6.9245 O   0  0  0  0  0  0  0  0  0  0  0  0
    3.0257  -13.9250   -9.0664 H   0  0  0  0  0  0  0  0  0  0  0  0
    2.9648  -15.5910   -8.4320 H   0  0  0  0  0  0  0  0  0  0  0  0
    3.5391  -15.2910  -10.0769 H   0  0  0  0  0  0  0  0  0  0  0  0
    6.5752  -13.7050   -7.7401 H   0  0  0  0  0  0  0  0  0  0  0  0
    3.8833  -12.2624   -8.3012 H   0  0  0  0  0  0  0  0  0  0  0  0
    5.4852  -11.5934   -8.6225 H   0  0  0  0  0  0  0  0  0  0  0  0
    6.0600  -11.7790   -6.1860 H   0  0  0  0  0  0  0  0  0  0  0  0
    4.4517  -12.4290   -5.8478 H   0  0  0  0  0  0  0  0  0  0  0  0
    6.2926   -9.4485   -7.1360 H   0  0  0  0  0  0  0  0  0  0  0  0
    5.0418   -8.2514   -6.7206 H   0  0  0  0  0  0  0  0  0  0  0  0
    4.8652   -9.2469   -8.1690 H   0  0  0  0  0  0  0  0  0  0  0  0
    3.0182  -10.9485   -4.9792 H   0  0  0  0  0  0  0  0  0  0  0  0
    3.4992   -7.9187   -5.4679 H   0  0  0  0  0  0  0  0  0  0  0  0
    2.7451   -8.6660   -4.0492 H   0  0  0  0  0  0  0  0  0  0  0  0
    1.2864   -6.5061   -5.8868 H   0  0  0  0  0  0  0  0  0  0  0  0
   -0.8404  -10.6980   -3.9303 H   0  0  0  0  0  0  0  0  0  0  0  0
   -1.5384  -13.5196   -5.9120 H   0  0  0  0  0  0  0  0  0  0  0  0
   -1.4840  -14.7450   -7.7511 H   0  0  0  0  0  0  0  0  0  0  0  0
    0.0314  -14.7304   -8.6426 H   0  0  0  0  0  0  0  0  0  0  0  0
   -1.4305  -13.9172   -9.3050 H   0  0  0  0  0  0  0  0  0  0  0  0
    0.2007  -13.5745   -9.9761 H   0  0  0  0  0  0  0  0  0  0  0  0
    1.8297  -11.7203  -12.0231 H   0  0  0  0  0  0  0  0  0  0  0  0
    3.2039  -10.7140  -11.5378 H   0  0  0  0  0  0  0  0  0  0  0  0
    1.7061   -9.9573  -12.1478 H   0  0  0  0  0  0  0  0  0  0  0  0
    2.7490   -8.7711  -10.7401 H   0  0  0  0  0  0  0  0  0  0  0  0
    5.6890  -16.4797   -9.6295 H   0  0  0  0  0  0  0  0  0  0  0  0
    5.1241  -16.8551   -8.0157 H   0  0  0  0  0  0  0  0  0  0  0  0
    7.2206  -15.7678   -7.0432 H   0  0  0  0  0  0  0  0  0  0  0  0
    7.7782  -15.4043   -8.6427 H   0  0  0  0  0  0  0  0  0  0  0  0
    7.1413  -18.2760   -8.5903 H   0  0  0  0  0  0  0  0  0  0  0  0
   10.4101  -19.3461   -8.5789 H   0  0  0  0  0  0  0  0  0  0  0  0
    8.7245  -19.8361   -8.6387 H   0  0  0  0  0  0  0  0  0  0  0  0
    8.7982  -20.7689   -6.5079 H   0  0  0  0  0  0  0  0  0  0  0  0
    9.6681  -19.3919   -5.8328 H   0  0  0  0  0  0  0  0  0  0  0  0
   12.8352  -20.4204   -6.6833 H   0  0  0  0  0  0  0  0  0  0  0  0
   10.2230  -20.4998   -3.8478 H   0  0  0  0  0  0  0  0  0  0  0  0
   11.8549  -19.9109   -4.2667 H   0  0  0  0  0  0  0  0  0  0  0  0
   11.6488  -21.3691   -3.2520 H   0  0  0  0  0  0  0  0  0  0  0  0
    9.2925  -22.6110   -5.0638 H   0  0  0  0  0  0  0  0  0  0  0  0
   10.6463  -23.5141   -4.3526 H   0  0  0  0  0  0  0  0  0  0  0  0
   10.3978  -23.5456   -6.1160 H   0  0  0  0  0  0  0  0  0  0  0  0
   12.9746  -22.5017   -4.7955 H   0  0  0  0  0  0  0  0  0  0  0  0
   11.4318  -18.2612   -7.0358 H   0  0  0  0  0  0  0  0  0  0  0  0
  1  2  1  0
  1 47  1  0
  1 48  1  0
  1 49  1  0
  2  3  2  0
  2 31  1  0
  3  4  1  0
  3 50  1  0
  4  5  1  0
  4 51  1  0
  4 52  1  0
  5  6  1  0
  5 53  1  0
  5 54  1  0
  6  7  1  0
  6  8  2  0
  7 55  1  0
  7 56  1  0
  7 57  1  0
  8  9  1  0
  8 58  1  0
  9 10  1  0
  9 59  1  0
  9 60  1  0
 10 11  1  1
 10 12  1  0
 10 29  1  0
 11 61  1  0
 12 13  2  0
 12 14  1  0
 14 15  1  0
 14 28  2  0
 15 16  1  0
 15 17  2  0
 16 62  1  0
 17 18  1  0
 17 63  1  0
 18 19  1  0
 18 20  2  0
 19 64  1  0
 19 65  1  0
 19 66  1  0
 20 21  1  0
 20 28  1  0
 21 22  1  0
 21 23  2  0
 22 67  1  0
 23 24  1  0
 23 25  1  0
 24 68  1  0
 24 69  1  0
 24 70  1  0
 25 26  1  0
 25 27  2  0
 26 71  1  0
 27 28  1  0
 27 29  1  0
 29 30  2  0
 31 32  1  0
 31 72  1  0
 31 73  1  0
 32 33  1  0
 32 74  1  0
 32 75  1  0
 33 34  2  0
 33 76  1  0
 34 35  1  0
 34 44  1  0
 35 36  1  0
 35 77  1  0
 35 78  1  0
 36 37  1  0
 36 79  1  0
 36 80  1  0
 37 38  1  6
 37 39  1  0
 37 40  1  0
 39 81  1  0
 40 41  1  0
 40 42  1  0
 40 43  1  6
 41 82  1  0
 41 83  1  0
 41 84  1  0
 42 85  1  0
 42 86  1  0
 42 87  1  0
 43 88  1  0
 44 45  2  0
 44 46  1  0
 46 89  1  0
M  END

