
     RDKit          3D

 46 49  0  0  0  0  0  0  0  0999 V2000
   -0.9767   -0.3967   -0.9375 C   0  0  0  0  0  0  0  0  0  0  0  0
   -1.1250    0.6854    0.0047 C   0  0  0  0  0  0  0  0  0  0  0  0
   -1.5609    0.5274    1.2805 C   0  0  0  0  0  0  0  0  0  0  0  0
   -1.7424    1.5565    2.3036 C   0  0  0  0  0  0  0  0  0  0  0  0
   -2.2243    1.1638    3.5880 C   0  0  0  0  0  0  0  0  0  0  0  0
   -2.4190    2.0769    4.5991 C   0  0  0  0  0  0  0  0  0  0  0  0
   -2.1443    3.4550    4.3963 C   0  0  0  0  0  0  0  0  0  0  0  0
   -2.3473    4.3331    5.4199 N   0  0  0  0  0  0  0  0  0  0  0  0
   -2.0728    5.5888    5.1651 C   0  0  0  0  0  0  0  0  0  0  0  0
   -1.6140    6.1160    4.0089 N   0  0  0  0  0  0  0  0  0  0  0  0
   -1.4045    5.2985    2.9901 C   0  0  0  0  0  0  0  0  0  0  0  0
   -0.9421    5.7856    1.7983 N   0  0  0  0  0  0  0  0  0  0  0  0
   -0.6074    7.0858    1.3766 C   0  0  0  0  0  0  0  0  0  0  0  0
   -0.6922    8.2339    2.1855 C   0  0  0  0  0  0  0  0  0  0  0  0
   -0.3313    9.4763    1.6572 C   0  0  0  0  0  0  0  0  0  0  0  0
    0.1136    9.6069    0.3393 C   0  0  0  0  0  0  0  0  0  0  0  0
    0.1977    8.4653   -0.4645 C   0  0  0  0  0  0  0  0  0  0  0  0
   -0.1582    7.2194    0.0469 C   0  0  0  0  0  0  0  0  0  0  0  0
   -1.6610    3.8713    3.1170 C   0  0  0  0  0  0  0  0  0  0  0  0
   -1.4704    2.9120    2.0997 C   0  0  0  0  0  0  0  0  0  0  0  0
   -0.5408   -0.2342   -2.2125 C   0  0  0  0  0  0  0  0  0  0  0  0
   -0.3590   -1.2646   -3.2352 C   0  0  0  0  0  0  0  0  0  0  0  0
    0.1082   -0.8851   -4.5114 C   0  0  0  0  0  0  0  0  0  0  0  0
    0.2994   -1.8262   -5.5237 C   0  0  0  0  0  0  0  0  0  0  0  0
    0.0275   -3.1764   -5.2859 C   0  0  0  0  0  0  0  0  0  0  0  0
   -0.4371   -3.5733   -4.0254 C   0  0  0  0  0  0  0  0  0  0  0  0
   -0.6279   -2.6337   -3.0148 C   0  0  0  0  0  0  0  0  0  0  0  0
   -1.2390   -1.3962   -0.5736 H   0  0  0  0  0  0  0  0  0  0  0  0
   -0.8614    1.6837   -0.3638 H   0  0  0  0  0  0  0  0  0  0  0  0
   -1.8134   -0.4896    1.6023 H   0  0  0  0  0  0  0  0  0  0  0  0
   -2.4417    0.1066    3.7638 H   0  0  0  0  0  0  0  0  0  0  0  0
   -2.7872    1.7779    5.5821 H   0  0  0  0  0  0  0  0  0  0  0  0
   -2.2295    6.3100    5.9775 H   0  0  0  0  0  0  0  0  0  0  0  0
   -0.8153    5.0887    1.0772 H   0  0  0  0  0  0  0  0  0  0  0  0
   -1.0385    8.1332    3.2103 H   0  0  0  0  0  0  0  0  0  0  0  0
   -0.4023   10.3595    2.2975 H   0  0  0  0  0  0  0  0  0  0  0  0
    0.3920   10.5854   -0.0585 H   0  0  0  0  0  0  0  0  0  0  0  0
    0.5429    8.5425   -1.4986 H   0  0  0  0  0  0  0  0  0  0  0  0
   -0.0885    6.3324   -0.5912 H   0  0  0  0  0  0  0  0  0  0  0  0
   -1.0991    3.2177    1.1189 H   0  0  0  0  0  0  0  0  0  0  0  0
   -0.2897    0.7840   -2.5336 H   0  0  0  0  0  0  0  0  0  0  0  0
    0.3232    0.1696   -4.7053 H   0  0  0  0  0  0  0  0  0  0  0  0
    0.6623   -1.5040   -6.5031 H   0  0  0  0  0  0  0  0  0  0  0  0
    0.1758   -3.9167   -6.0759 H   0  0  0  0  0  0  0  0  0  0  0  0
   -0.6523   -4.6272   -3.8304 H   0  0  0  0  0  0  0  0  0  0  0  0
   -0.9909   -2.9679   -2.0405 H   0  0  0  0  0  0  0  0  0  0  0  0
  1  2  1  0
  1 21  2  0
  1 28  1  0
  2  3  2  0
  2 29  1  0
  3  4  1  0
  3 30  1  0
  4  5  2  0
  4 20  1  0
  5  6  1  0
  5 31  1  0
  6  7  2  0
  6 32  1  0
  7  8  1  0
  7 19  1  0
  8  9  2  0
  9 10  1  0
  9 33  1  0
 10 11  2  0
 11 12  1  0
 11 19  1  0
 12 13  1  0
 12 34  1  0
 13 14  2  0
 13 18  1  0
 14 15  1  0
 14 35  1  0
 15 16  2  0
 15 36  1  0
 16 17  1  0
 16 37  1  0
 17 18  2  0
 17 38  1  0
 18 39  1  0
 19 20  2  0
 20 40  1  0
 21 22  1  0
 21 41  1  0
 22 23  2  0
 22 27  1  0
 23 24  1  0
 23 42  1  0
 24 25  2  0
 24 43  1  0
 25 26  1  0
 25 44  1  0
 26 27  2  0
 26 45  1  0
 27 46  1  0
M  END

