
     RDKit          3D

 39 40  0  0  0  0  0  0  0  0999 V2000
    1.1789    1.4872    3.2691 C   0  0  0  0  0  0  0  0  0  0  0  0
    2.9862    1.6859    3.1966 S   0  0  0  0  0  0  0  0  0  0  0  0
    3.4782   -0.0560    2.9073 C   0  0  0  0  0  0  0  0  0  0  0  0
    4.9967   -0.1505    2.7501 C   0  0  0  0  0  0  0  0  0  0  0  0
    5.5235   -1.5970    2.6326 C   0  0  1  0  0  0  0  0  0  0  0  0
    5.0027   -2.3534    1.4033 C   0  0  0  0  0  0  0  0  0  0  0  0
    6.9955   -1.6223    2.6977 N   0  0  0  0  0  0  0  0  0  0  0  0
    7.7458   -1.0279    1.5947 C   0  0  0  0  0  0  0  0  0  0  0  0
    7.6144   -2.1611    3.7947 C   0  0  0  0  0  0  0  0  0  0  0  0
    6.8649   -2.6389    4.7819 N   0  0  0  0  0  0  0  0  0  0  0  0
    7.4185   -3.1910    5.8873 C   0  0  0  0  0  0  0  0  0  0  0  0
    6.5286   -3.6111    6.8709 N   0  0  0  0  0  0  0  0  0  0  0  0
    5.1720   -3.8090    6.6041 N   0  0  0  0  0  0  0  0  0  0  0  0
    8.7825   -3.3106    6.0629 C   0  0  0  0  0  0  0  0  0  0  0  0
    9.5790   -2.8091    5.0467 N   0  0  0  0  0  0  0  0  0  0  0  0
   10.9411   -2.7692    4.9217 C   0  0  0  0  0  0  0  0  0  0  0  0
   11.1868   -2.1618    3.6940 C   0  0  0  0  0  0  0  0  0  0  0  0
   10.0362   -1.8348    3.0701 N   0  0  0  0  0  0  0  0  0  0  0  0
    9.0562   -2.2271    3.8939 C   0  0  0  0  0  0  0  0  0  0  0  0
    0.7541    2.4863    3.4434 H   0  0  0  0  0  0  0  0  0  0  0  0
    0.8773    0.8273    4.0979 H   0  0  0  0  0  0  0  0  0  0  0  0
    0.7766    1.0939    2.3220 H   0  0  0  0  0  0  0  0  0  0  0  0
    2.9599   -0.4194    2.0050 H   0  0  0  0  0  0  0  0  0  0  0  0
    3.1396   -0.6719    3.7589 H   0  0  0  0  0  0  0  0  0  0  0  0
    5.4761    0.3114    3.6292 H   0  0  0  0  0  0  0  0  0  0  0  0
    5.3036    0.4459    1.8734 H   0  0  0  0  0  0  0  0  0  0  0  0
    5.1974   -2.1384    3.5286 H   0  0  0  0  0  0  0  0  0  0  0  0
    5.2409   -1.8399    0.4576 H   0  0  0  0  0  0  0  0  0  0  0  0
    3.9084   -2.4630    1.4502 H   0  0  0  0  0  0  0  0  0  0  0  0
    5.4379   -3.3638    1.3621 H   0  0  0  0  0  0  0  0  0  0  0  0
    7.0342   -0.6126    0.8710 H   0  0  0  0  0  0  0  0  0  0  0  0
    8.3809   -1.7655    1.0841 H   0  0  0  0  0  0  0  0  0  0  0  0
    8.4082   -0.2221    1.9396 H   0  0  0  0  0  0  0  0  0  0  0  0
    6.8967   -4.2475    7.5679 H   0  0  0  0  0  0  0  0  0  0  0  0
    5.0564   -4.2420    5.6832 H   0  0  0  0  0  0  0  0  0  0  0  0
    4.7193   -2.8966    6.5357 H   0  0  0  0  0  0  0  0  0  0  0  0
    9.2738   -3.7492    6.9292 H   0  0  0  0  0  0  0  0  0  0  0  0
   11.6009   -3.1613    5.6909 H   0  0  0  0  0  0  0  0  0  0  0  0
   12.1605   -1.9552    3.2490 H   0  0  0  0  0  0  0  0  0  0  0  0
  1  2  1  0
  1 20  1  0
  1 21  1  0
  1 22  1  0
  2  3  1  0
  3  4  1  0
  3 23  1  0
  3 24  1  0
  4  5  1  0
  4 25  1  0
  4 26  1  0
  5  6  1  0
  5  7  1  0
  5 27  1  1
  6 28  1  0
  6 29  1  0
  6 30  1  0
  7  8  1  0
  7  9  1  0
  8 31  1  0
  8 32  1  0
  8 33  1  0
  9 10  2  0
  9 19  1  0
 10 11  1  0
 11 12  1  0
 11 14  2  0
 12 13  1  0
 12 34  1  0
 13 35  1  0
 13 36  1  0
 14 15  1  0
 14 37  1  0
 15 16  1  0
 15 19  1  0
 16 17  2  0
 16 38  1  0
 17 18  1  0
 17 39  1  0
 18 19  2  0
M  END

