
     RDKit          3D

 32 32  0  0  0  0  0  0  0  0999 V2000
    3.1563    0.7994    1.1609 C   0  0  0  0  0  0  0  0  0  0  0  0
    2.6500   -0.0187   -0.0179 C   0  0  1  0  0  0  0  0  0  0  0  0
    3.0445    0.6152   -1.2827 N   0  0  0  0  0  0  0  0  0  0  0  0
    2.4372    0.3601   -2.4638 C   0  0  0  0  0  0  0  0  0  0  0  0
    1.5918   -0.5350   -2.5780 O   0  0  0  0  0  0  0  0  0  0  0  0
    2.8280    1.2311   -3.6414 C   0  0  0  0  0  0  0  0  0  0  0  0
    3.0809    0.3891   -4.9030 C   0  0  0  0  0  0  0  0  0  0  0  0
    3.3113    1.1924   -6.0874 N   0  0  0  0  0  0  0  0  0  0  0  0
    4.4789    1.8766   -6.2679 C   0  0  0  0  0  0  0  0  0  0  0  0
    5.3812    1.8925   -5.4403 O   0  0  0  0  0  0  0  0  0  0  0  0
    4.5922    2.6123   -7.5467 C   0  0  0  0  0  0  0  0  0  0  0  0
    5.6060    3.3886   -8.0434 C   0  0  0  0  0  0  0  0  0  0  0  0
    5.1690    3.8437   -9.3266 C   0  0  0  0  0  0  0  0  0  0  0  0
    3.9230    3.3103   -9.5141 C   0  0  0  0  0  0  0  0  0  0  0  0
    3.5622    2.5626   -8.4435 O   0  0  0  0  0  0  0  0  0  0  0  0
    3.1286   -1.4937    0.0641 C   0  0  0  0  0  0  0  0  0  0  0  0
    3.8511   -1.8898    0.9417 O   0  0  0  0  0  0  0  0  0  0  0  0
    2.6562   -2.2893   -0.8929 O   0  0  0  0  0  0  0  0  0  0  0  0
    2.7707    1.8293    1.1140 H   0  0  0  0  0  0  0  0  0  0  0  0
    4.2569    0.8194    1.1780 H   0  0  0  0  0  0  0  0  0  0  0  0
    2.8310    0.3409    2.1038 H   0  0  0  0  0  0  0  0  0  0  0  0
    1.5455   -0.0529   -0.0135 H   0  0  0  0  0  0  0  0  0  0  0  0
    3.7881    1.3040   -1.2532 H   0  0  0  0  0  0  0  0  0  0  0  0
    3.7166    1.8403   -3.4216 H   0  0  0  0  0  0  0  0  0  0  0  0
    1.9855    1.9198   -3.8274 H   0  0  0  0  0  0  0  0  0  0  0  0
    2.2162   -0.2643   -5.0810 H   0  0  0  0  0  0  0  0  0  0  0  0
    3.9588   -0.2550   -4.7304 H   0  0  0  0  0  0  0  0  0  0  0  0
    2.6091    1.2269   -6.8164 H   0  0  0  0  0  0  0  0  0  0  0  0
    6.5446    3.5953   -7.5356 H   0  0  0  0  0  0  0  0  0  0  0  0
    5.7085    4.4833  -10.0217 H   0  0  0  0  0  0  0  0  0  0  0  0
    3.2002    3.3705  -10.3239 H   0  0  0  0  0  0  0  0  0  0  0  0
    2.0939   -1.7768   -1.5308 H   0  0  0  0  0  0  0  0  0  0  0  0
  1  2  1  0
  1 19  1  0
  1 20  1  0
  1 21  1  0
  2  3  1  0
  2 16  1  0
  2 22  1  6
  3  4  1  0
  3 23  1  0
  4  5  2  0
  4  6  1  0
  6  7  1  0
  6 24  1  0
  6 25  1  0
  7  8  1  0
  7 26  1  0
  7 27  1  0
  8  9  1  0
  8 28  1  0
  9 10  2  0
  9 11  1  0
 11 12  2  0
 11 15  1  0
 12 13  1  0
 12 29  1  0
 13 14  2  0
 13 30  1  0
 14 15  1  0
 14 31  1  0
 16 17  2  0
 16 18  1  0
 18 32  1  0
M  END

