
     RDKit          3D

 46 48  0  0  0  0  0  0  0  0999 V2000
    3.4514    1.1024    0.6099 O   0  0  0  0  0  0  0  0  0  0  0  0
    3.0815   -0.0397    0.6876 C   0  0  0  0  0  0  0  0  0  0  0  0
    2.2515   -0.4205    1.6867 O   0  0  0  0  0  0  0  0  0  0  0  0
    3.4898   -1.1061   -0.2895 C   0  0  0  0  0  0  0  0  0  0  0  0
    3.3842   -2.4807   -0.0245 C   0  0  0  0  0  0  0  0  0  0  0  0
    3.7961   -3.4231   -0.9680 C   0  0  0  0  0  0  0  0  0  0  0  0
    4.3243   -3.0155   -2.2024 C   0  0  0  0  0  0  0  0  0  0  0  0
    4.8091   -4.0285   -3.2199 C   0  0  0  0  0  0  0  0  0  0  0  0
    4.0454   -5.2647   -3.1956 N   0  0  0  0  0  0  0  0  0  0  0  0
    4.4675   -6.2874   -4.1584 C   0  0  1  0  0  0  0  0  0  0  0  0
    5.7749   -6.9779   -3.7227 C   0  0  0  0  0  0  0  0  0  0  0  0
    5.5938   -7.8311   -2.4624 C   0  0  0  0  0  0  0  0  0  0  0  0
    4.4703   -8.8609   -2.6337 C   0  0  0  0  0  0  0  0  0  0  0  0
    3.1420   -8.1934   -3.0506 C   0  0  2  0  0  0  0  0  0  0  0  0
    2.0076   -9.1924   -3.2105 C   0  0  0  0  0  0  0  0  0  0  0  0
    2.0464  -10.2076   -4.1824 C   0  0  0  0  0  0  0  0  0  0  0  0
    0.9945  -11.1171   -4.3100 C   0  0  0  0  0  0  0  0  0  0  0  0
   -0.1230  -11.0397   -3.4740 C   0  0  0  0  0  0  0  0  0  0  0  0
   -0.1635  -10.0325   -2.5082 C   0  0  0  0  0  0  0  0  0  0  0  0
   -1.5502   -9.9092   -1.4452 Cl  0  0  0  0  0  0  0  0  0  0  0  0
    0.8847   -9.1176   -2.3730 C   0  0  0  0  0  0  0  0  0  0  0  0
    3.3537   -7.3369   -4.3187 C   0  0  0  0  0  0  0  0  0  0  0  0
    4.4332   -1.6390   -2.4613 C   0  0  0  0  0  0  0  0  0  0  0  0
    4.0348   -0.6967   -1.5163 C   0  0  0  0  0  0  0  0  0  0  0  0
    1.9393   -1.3241    1.5411 H   0  0  0  0  0  0  0  0  0  0  0  0
    3.0081   -2.8397    0.9389 H   0  0  0  0  0  0  0  0  0  0  0  0
    3.7149   -4.4902   -0.7545 H   0  0  0  0  0  0  0  0  0  0  0  0
    5.8644   -4.2645   -2.9919 H   0  0  0  0  0  0  0  0  0  0  0  0
    4.8269   -3.5486   -4.2243 H   0  0  0  0  0  0  0  0  0  0  0  0
    3.0599   -5.0478   -3.3451 H   0  0  0  0  0  0  0  0  0  0  0  0
    4.6426   -5.8291   -5.1578 H   0  0  0  0  0  0  0  0  0  0  0  0
    6.5739   -6.2334   -3.5728 H   0  0  0  0  0  0  0  0  0  0  0  0
    6.1125   -7.6159   -4.5588 H   0  0  0  0  0  0  0  0  0  0  0  0
    5.3588   -7.1720   -1.6101 H   0  0  0  0  0  0  0  0  0  0  0  0
    6.5391   -8.3425   -2.2153 H   0  0  0  0  0  0  0  0  0  0  0  0
    4.3217   -9.4297   -1.7009 H   0  0  0  0  0  0  0  0  0  0  0  0
    4.7633   -9.5989   -3.4027 H   0  0  0  0  0  0  0  0  0  0  0  0
    2.8576   -7.5040   -2.2388 H   0  0  0  0  0  0  0  0  0  0  0  0
    2.9080  -10.2933   -4.8491 H   0  0  0  0  0  0  0  0  0  0  0  0
    1.0414  -11.9004   -5.0710 H   0  0  0  0  0  0  0  0  0  0  0  0
   -0.9504  -11.7450   -3.5651 H   0  0  0  0  0  0  0  0  0  0  0  0
    0.8210   -8.3428   -1.6061 H   0  0  0  0  0  0  0  0  0  0  0  0
    2.4083   -6.8398   -4.5993 H   0  0  0  0  0  0  0  0  0  0  0  0
    3.6169   -7.9913   -5.1668 H   0  0  0  0  0  0  0  0  0  0  0  0
    4.8382   -1.3022   -3.4200 H   0  0  0  0  0  0  0  0  0  0  0  0
    4.1296    0.3734   -1.7101 H   0  0  0  0  0  0  0  0  0  0  0  0
  1  2  2  0
  2  3  1  0
  2  4  1  0
  3 25  1  0
  4  5  2  0
  4 24  1  0
  5  6  1  0
  5 26  1  0
  6  7  2  0
  6 27  1  0
  7  8  1  0
  7 23  1  0
  8  9  1  0
  8 28  1  0
  8 29  1  0
  9 10  1  0
  9 30  1  0
 10 11  1  0
 10 22  1  0
 10 31  1  6
 11 12  1  0
 11 32  1  0
 11 33  1  0
 12 13  1  0
 12 34  1  0
 12 35  1  0
 13 14  1  0
 13 36  1  0
 13 37  1  0
 14 15  1  0
 14 22  1  0
 14 38  1  1
 15 16  2  0
 15 21  1  0
 16 17  1  0
 16 39  1  0
 17 18  2  0
 17 40  1  0
 18 19  1  0
 18 41  1  0
 19 20  1  0
 19 21  2  0
 21 42  1  0
 22 43  1  0
 22 44  1  0
 23 24  2  0
 23 45  1  0
 24 46  1  0
M  END

