
     RDKit          3D

102109  0  0  0  0  0  0  0  0999 V2000
    2.9954    0.0876    0.5163 C   0  0  0  0  0  0  0  0  0  0  0  0
    4.5047    0.1781    0.6748 C   0  0  0  0  0  0  0  0  0  0  0  0
    5.0988    1.0119   -0.3326 O   0  0  0  0  0  0  0  0  0  0  0  0
    5.1438    2.3418   -0.0943 C   0  0  0  0  0  0  0  0  0  0  0  0
    4.7023    2.8433    0.9175 O   0  0  0  0  0  0  0  0  0  0  0  0
    5.7901    3.1307   -1.1877 C   0  0  0  0  0  0  0  0  0  0  0  0
    5.8251    4.6137   -0.9479 C   0  0  0  0  0  0  0  0  0  0  0  0
    6.3042    2.4875   -2.2642 C   0  0  0  0  0  0  0  0  0  0  0  0
    6.9482    3.0612   -3.4486 C   0  0  0  0  0  0  0  0  0  0  0  0
    8.1418    2.5863   -4.0263 C   0  0  0  0  0  0  0  0  0  0  0  0
    9.0096    1.4991   -3.5582 C   0  0  0  0  0  0  0  0  0  0  0  0
    9.6969    0.6679   -4.4669 C   0  0  0  0  0  0  0  0  0  0  0  0
   10.5144   -0.3672   -4.0139 C   0  0  0  0  0  0  0  0  0  0  0  0
   10.6901   -0.6175   -2.6444 C   0  0  0  0  0  0  0  0  0  0  0  0
   11.5723   -1.7374   -2.1517 C   0  0  0  0  0  0  0  0  0  0  0  0
   10.0125    0.2158   -1.7382 C   0  0  0  0  0  0  0  0  0  0  0  0
    9.1895    1.2485   -2.1800 C   0  0  0  0  0  0  0  0  0  0  0  0
    8.3779    3.4094   -5.1781 C   0  0  0  0  0  0  0  0  0  0  0  0
    9.3918    3.3212   -6.0208 N   0  0  0  0  0  0  0  0  0  0  0  0
    9.4770    4.1138   -7.0689 C   0  0  0  0  0  0  0  0  0  0  0  0
   10.5491    4.1602   -8.0308 C   0  0  0  0  0  0  0  0  0  0  0  0
   11.7042    3.2485   -8.0440 C   0  0  0  0  0  0  0  0  0  0  0  0
   12.1976    2.7201   -9.2528 C   0  0  0  0  0  0  0  0  0  0  0  0
   13.2787    1.8390   -9.2632 C   0  0  0  0  0  0  0  0  0  0  0  0
   13.9190    1.4544   -8.0752 C   0  0  0  0  0  0  0  0  0  0  0  0
   15.0988    0.5140   -8.0827 C   0  0  0  0  0  0  0  0  0  0  0  0
   13.4259    1.9809   -6.8696 C   0  0  0  0  0  0  0  0  0  0  0  0
   12.3410    2.8549   -6.8481 C   0  0  0  0  0  0  0  0  0  0  0  0
   10.2156    5.1797   -8.9316 C   0  0  0  0  0  0  0  0  0  0  0  0
   10.9989    5.6351  -10.1040 C   0  0  0  0  0  0  0  0  0  0  0  0
   12.3405    6.0238   -9.9692 C   0  0  0  0  0  0  0  0  0  0  0  0
   13.0978    6.4469  -11.0660 C   0  0  0  0  0  0  0  0  0  0  0  0
   12.5149    6.4872  -12.3419 C   0  0  0  0  0  0  0  0  0  0  0  0
   13.1574    6.8795  -13.4708 O   0  0  0  0  0  0  0  0  0  0  0  0
   14.5068    7.2792  -13.3944 C   0  0  0  0  0  0  0  0  0  0  0  0
   11.1717    6.1002  -12.4939 C   0  0  0  0  0  0  0  0  0  0  0  0
   10.4308    5.6846  -11.3939 C   0  0  0  0  0  0  0  0  0  0  0  0
    8.9511    5.7238   -8.5074 C   0  0  0  0  0  0  0  0  0  0  0  0
    8.2533    6.8643   -9.1265 C   0  0  0  0  0  0  0  0  0  0  0  0
    6.8769    6.8437   -9.4166 C   0  0  0  0  0  0  0  0  0  0  0  0
    6.2651    7.9384  -10.0284 C   0  0  0  0  0  0  0  0  0  0  0  0
    6.9877    9.0936  -10.3589 C   0  0  0  0  0  0  0  0  0  0  0  0
    6.3253   10.2803  -11.0127 C   0  0  0  0  0  0  0  0  0  0  0  0
    8.3611    9.1139  -10.0589 C   0  0  0  0  0  0  0  0  0  0  0  0
    8.9863    8.0213   -9.4668 C   0  0  0  0  0  0  0  0  0  0  0  0
    8.5133    5.0615   -7.4091 N   0  0  0  0  0  0  0  0  0  0  0  0
    7.2414    5.3354   -6.5160 B   0  0  2  0  0  0  0  0  0  0  0  0
    6.0759    5.0404   -7.2071 F   0  0  0  0  0  0  0  0  0  0  0  0
    7.2810    6.6556   -6.0963 F   0  0  0  0  0  0  0  0  0  0  0  0
    7.3534    4.3472   -5.2912 N   0  0  0  0  0  0  0  0  0  0  0  0
    6.4728    4.1327   -4.2823 C   0  0  0  0  0  0  0  0  0  0  0  0
    5.1739    4.8194   -4.1566 C   0  0  0  0  0  0  0  0  0  0  0  0
    5.0400    6.2173   -4.2241 C   0  0  0  0  0  0  0  0  0  0  0  0
    3.7888    6.8176   -4.0766 C   0  0  0  0  0  0  0  0  0  0  0  0
    2.6289    6.0572   -3.8709 C   0  0  0  0  0  0  0  0  0  0  0  0
    1.2752    6.7046   -3.7194 C   0  0  0  0  0  0  0  0  0  0  0  0
    2.7661    4.6590   -3.8140 C   0  0  0  0  0  0  0  0  0  0  0  0
    4.0108    4.0506   -3.9454 C   0  0  0  0  0  0  0  0  0  0  0  0
    2.5824   -0.6205    1.2529 H   0  0  0  0  0  0  0  0  0  0  0  0
    2.7256   -0.2670   -0.4908 H   0  0  0  0  0  0  0  0  0  0  0  0
    2.5272    1.0685    0.6850 H   0  0  0  0  0  0  0  0  0  0  0  0
    4.9780   -0.8056    0.5389 H   0  0  0  0  0  0  0  0  0  0  0  0
    4.7697    0.5708    1.6677 H   0  0  0  0  0  0  0  0  0  0  0  0
    6.0835    4.8172    0.1020 H   0  0  0  0  0  0  0  0  0  0  0  0
    4.8367    5.0702   -1.1223 H   0  0  0  0  0  0  0  0  0  0  0  0
    6.5484    5.1126   -1.6054 H   0  0  0  0  0  0  0  0  0  0  0  0
    6.2776    1.3943   -2.2372 H   0  0  0  0  0  0  0  0  0  0  0  0
    9.5818    0.8341   -5.5374 H   0  0  0  0  0  0  0  0  0  0  0  0
   11.0265   -0.9984   -4.7456 H   0  0  0  0  0  0  0  0  0  0  0  0
   12.0424   -2.2801   -2.9850 H   0  0  0  0  0  0  0  0  0  0  0  0
   10.9980   -2.4669   -1.5559 H   0  0  0  0  0  0  0  0  0  0  0  0
   12.3765   -1.3563   -1.4999 H   0  0  0  0  0  0  0  0  0  0  0  0
   10.1373    0.0564   -0.6629 H   0  0  0  0  0  0  0  0  0  0  0  0
    8.6994    1.8903   -1.4468 H   0  0  0  0  0  0  0  0  0  0  0  0
   11.7165    2.9879  -10.1946 H   0  0  0  0  0  0  0  0  0  0  0  0
   13.6306    1.4378  -10.2181 H   0  0  0  0  0  0  0  0  0  0  0  0
   15.3070    0.1320   -9.0930 H   0  0  0  0  0  0  0  0  0  0  0  0
   14.9266   -0.3518   -7.4218 H   0  0  0  0  0  0  0  0  0  0  0  0
   16.0120    1.0157   -7.7192 H   0  0  0  0  0  0  0  0  0  0  0  0
   13.9013    1.7005   -5.9249 H   0  0  0  0  0  0  0  0  0  0  0  0
   11.9795    3.2431   -5.8960 H   0  0  0  0  0  0  0  0  0  0  0  0
   12.8080    5.9999   -8.9822 H   0  0  0  0  0  0  0  0  0  0  0  0
   14.1356    6.7428  -10.9116 H   0  0  0  0  0  0  0  0  0  0  0  0
   14.8125    7.5476  -14.4146 H   0  0  0  0  0  0  0  0  0  0  0  0
   15.1582    6.4645  -13.0291 H   0  0  0  0  0  0  0  0  0  0  0  0
   14.6397    8.1590  -12.7389 H   0  0  0  0  0  0  0  0  0  0  0  0
   10.7321    6.1341  -13.4928 H   0  0  0  0  0  0  0  0  0  0  0  0
    9.3898    5.3851  -11.5344 H   0  0  0  0  0  0  0  0  0  0  0  0
    6.2827    5.9689   -9.1591 H   0  0  0  0  0  0  0  0  0  0  0  0
    5.1951    7.8921  -10.2492 H   0  0  0  0  0  0  0  0  0  0  0  0
    5.2481   10.1140  -11.1594 H   0  0  0  0  0  0  0  0  0  0  0  0
    6.7718   10.4943  -11.9985 H   0  0  0  0  0  0  0  0  0  0  0  0
    6.4471   11.1910  -10.4024 H   0  0  0  0  0  0  0  0  0  0  0  0
    8.9519   10.0038  -10.2948 H   0  0  0  0  0  0  0  0  0  0  0  0
   10.0528    8.0695   -9.2433 H   0  0  0  0  0  0  0  0  0  0  0  0
    5.9182    6.8374   -4.3943 H   0  0  0  0  0  0  0  0  0  0  0  0
    3.7151    7.9075   -4.1259 H   0  0  0  0  0  0  0  0  0  0  0  0
    1.3400    7.8004   -3.7868 H   0  0  0  0  0  0  0  0  0  0  0  0
    0.8174    6.4518   -2.7482 H   0  0  0  0  0  0  0  0  0  0  0  0
    0.5784    6.3586   -4.5013 H   0  0  0  0  0  0  0  0  0  0  0  0
    1.8793    4.0355   -3.6668 H   0  0  0  0  0  0  0  0  0  0  0  0
    4.0835    2.9625   -3.9056 H   0  0  0  0  0  0  0  0  0  0  0  0
  1  2  1  0
  1 59  1  0
  1 60  1  0
  1 61  1  0
  2  3  1  0
  2 62  1  0
  2 63  1  0
  3  4  1  0
  4  5  2  0
  4  6  1  0
  6  7  1  0
  6  8  2  0
  7 64  1  0
  7 65  1  0
  7 66  1  0
  8  9  1  0
  8 67  1  0
  9 10  2  0
  9 51  1  0
 10 11  1  0
 10 18  1  0
 11 12  2  0
 11 17  1  0
 12 13  1  0
 12 68  1  0
 13 14  2  0
 13 69  1  0
 14 15  1  0
 14 16  1  0
 15 70  1  0
 15 71  1  0
 15 72  1  0
 16 17  2  0
 16 73  1  0
 17 74  1  0
 18 19  2  0
 18 50  1  0
 19 20  1  0
 20 21  2  0
 20 46  1  0
 21 22  1  0
 21 29  1  0
 22 23  2  0
 22 28  1  0
 23 24  1  0
 23 75  1  0
 24 25  2  0
 24 76  1  0
 25 26  1  0
 25 27  1  0
 26 77  1  0
 26 78  1  0
 26 79  1  0
 27 28  2  0
 27 80  1  0
 28 81  1  0
 29 30  1  0
 29 38  2  0
 30 31  2  0
 30 37  1  0
 31 32  1  0
 31 82  1  0
 32 33  2  0
 32 83  1  0
 33 34  1  0
 33 36  1  0
 34 35  1  0
 35 84  1  0
 35 85  1  0
 35 86  1  0
 36 37  2  0
 36 87  1  0
 37 88  1  0
 38 39  1  0
 38 46  1  0
 39 40  2  0
 39 45  1  0
 40 41  1  0
 40 89  1  0
 41 42  2  0
 41 90  1  0
 42 43  1  0
 42 44  1  0
 43 91  1  0
 43 92  1  0
 43 93  1  0
 44 45  2  0
 44 94  1  0
 45 95  1  0
 46 47  1  0
 47 48  1  6
 47 49  1  0
 47 50  1  0
 50 51  2  0
 51 52  1  0
 52 53  2  0
 52 58  1  0
 53 54  1  0
 53 96  1  0
 54 55  2  0
 54 97  1  0
 55 56  1  0
 55 57  1  0
 56 98  1  0
 56 99  1  0
 56100  1  0
 57 58  2  0
 57101  1  0
 58102  1  0
M  CHG  2  47  -1  50   1
M  END

