
     RDKit          3D

 35 36  0  0  0  0  0  0  0  0999 V2000
    1.1823    0.1578   -0.7601 C   0  0  0  0  0  0  0  0  0  0  0  0
    2.6223    0.1350   -0.3074 C   0  0  0  0  0  0  0  0  0  0  0  0
    3.3209    1.3348   -0.1371 C   0  0  0  0  0  0  0  0  0  0  0  0
    4.6483    1.3407    0.2947 C   0  0  0  0  0  0  0  0  0  0  0  0
    5.2724    0.1342    0.5625 C   0  0  0  0  0  0  0  0  0  0  0  0
    6.5386    0.1489    1.0094 F   0  0  0  0  0  0  0  0  0  0  0  0
    4.6209   -1.0987    0.3849 C   0  0  0  0  0  0  0  0  0  0  0  0
    3.2787   -1.0944   -0.0579 C   0  0  0  0  0  0  0  0  0  0  0  0
    2.5101   -2.3927   -0.2216 C   0  0  0  0  0  0  0  0  0  0  0  0
    3.3566   -3.6562   -0.0454 C   0  0  0  0  0  0  0  0  0  0  0  0
    4.3965   -3.4397    1.0483 C   0  0  0  0  0  0  0  0  0  0  0  0
    5.2866   -2.3185    0.7049 N   0  0  0  0  0  0  0  0  0  0  0  0
    6.7095   -2.7155   -0.1910 S   0  0  1  0  0  0  0  0  0  0  0  0
    6.6705   -4.1733   -0.3418 O   0  0  0  0  0  0  0  0  0  0  0  0
    6.7913   -1.8323   -1.3501 O   0  0  0  0  0  0  0  0  0  0  0  0
    7.9644   -2.3186    0.8273 N   0  0  0  0  0  0  0  0  0  0  0  0
    8.2418   -3.2308    1.9235 C   0  0  0  0  0  0  0  0  0  0  0  0
    9.0492   -1.4796    0.3406 C   0  0  0  0  0  0  0  0  0  0  0  0
    0.8276    1.1897   -0.8948 H   0  0  0  0  0  0  0  0  0  0  0  0
    0.5141   -0.3334   -0.0324 H   0  0  0  0  0  0  0  0  0  0  0  0
    1.0436   -0.3703   -1.7188 H   0  0  0  0  0  0  0  0  0  0  0  0
    2.8187    2.2840   -0.3402 H   0  0  0  0  0  0  0  0  0  0  0  0
    5.2056    2.2676    0.4417 H   0  0  0  0  0  0  0  0  0  0  0  0
    2.0139   -2.4049   -1.2059 H   0  0  0  0  0  0  0  0  0  0  0  0
    1.6854   -2.3960    0.5156 H   0  0  0  0  0  0  0  0  0  0  0  0
    3.8916   -3.9077   -0.9755 H   0  0  0  0  0  0  0  0  0  0  0  0
    2.7131   -4.5176    0.1958 H   0  0  0  0  0  0  0  0  0  0  0  0
    5.0065   -4.3360    1.1994 H   0  0  0  0  0  0  0  0  0  0  0  0
    3.9140   -3.1875    2.0089 H   0  0  0  0  0  0  0  0  0  0  0  0
    7.3040   -3.5844    2.3745 H   0  0  0  0  0  0  0  0  0  0  0  0
    8.7951   -2.6823    2.7018 H   0  0  0  0  0  0  0  0  0  0  0  0
    8.8362   -4.1103    1.6138 H   0  0  0  0  0  0  0  0  0  0  0  0
    8.6775   -0.8206   -0.4508 H   0  0  0  0  0  0  0  0  0  0  0  0
    9.8939   -2.0746   -0.0563 H   0  0  0  0  0  0  0  0  0  0  0  0
    9.4165   -0.8547    1.1708 H   0  0  0  0  0  0  0  0  0  0  0  0
  1  2  1  0
  1 19  1  0
  1 20  1  0
  1 21  1  0
  2  3  2  0
  2  8  1  0
  3  4  1  0
  3 22  1  0
  4  5  2  0
  4 23  1  0
  5  6  1  0
  5  7  1  0
  7  8  2  0
  7 12  1  0
  8  9  1  0
  9 10  1  0
  9 24  1  0
  9 25  1  0
 10 11  1  0
 10 26  1  0
 10 27  1  0
 11 12  1  0
 11 28  1  0
 11 29  1  0
 12 13  1  0
 13 14  2  0
 13 15  2  0
 13 16  1  1
 16 17  1  0
 16 18  1  0
 17 30  1  0
 17 31  1  0
 17 32  1  0
 18 33  1  0
 18 34  1  0
 18 35  1  0
M  END

