
     RDKit          3D

 20 20  0  0  0  0  0  0  0  0999 V2000
    1.4233   -0.1292   -2.4458 C   0  0  0  0  0  0  0  0  0  0  0  0
    2.6226   -0.1764   -2.2685 C   0  0  0  0  0  0  0  0  0  0  0  0
    4.0681   -0.2280   -2.0453 C   0  0  0  0  0  0  0  0  0  0  0  0
    4.7856   -0.9139   -2.7429 O   0  0  0  0  0  0  0  0  0  0  0  0
    4.5839    0.6294   -0.9010 C   0  0  0  0  0  0  0  0  0  0  0  0
    6.0946    0.5692   -0.7002 C   0  0  1  0  0  0  0  0  0  0  0  0
    6.6285    1.5141    0.3890 C   0  0  0  0  0  0  0  0  0  0  0  0
    7.9905    0.8922    0.6994 C   0  0  0  0  0  0  0  0  0  0  0  0
    7.8311   -0.5077    0.5149 O   0  0  0  0  0  0  0  0  0  0  0  0
    6.6408   -0.7857   -0.2127 C   0  0  0  0  0  0  0  0  0  0  0  0
    0.3621   -0.0975   -2.6143 H   0  0  0  0  0  0  0  0  0  0  0  0
    4.0450    0.3257    0.0165 H   0  0  0  0  0  0  0  0  0  0  0  0
    4.2505    1.6657   -1.0955 H   0  0  0  0  0  0  0  0  0  0  0  0
    6.5830    0.8155   -1.6584 H   0  0  0  0  0  0  0  0  0  0  0  0
    5.9746    1.4755    1.2778 H   0  0  0  0  0  0  0  0  0  0  0  0
    6.6945    2.5639    0.0634 H   0  0  0  0  0  0  0  0  0  0  0  0
    8.3319    1.0850    1.7303 H   0  0  0  0  0  0  0  0  0  0  0  0
    8.7669    1.2829    0.0109 H   0  0  0  0  0  0  0  0  0  0  0  0
    5.9058   -1.2858    0.4517 H   0  0  0  0  0  0  0  0  0  0  0  0
    6.8616   -1.4719   -1.0445 H   0  0  0  0  0  0  0  0  0  0  0  0
  1  2  3  0
  1 11  1  0
  2  3  1  0
  3  4  2  0
  3  5  1  0
  5  6  1  0
  5 12  1  0
  5 13  1  0
  6  7  1  0
  6 10  1  0
  6 14  1  6
  7  8  1  0
  7 15  1  0
  7 16  1  0
  8  9  1  0
  8 17  1  0
  8 18  1  0
  9 10  1  0
 10 19  1  0
 10 20  1  0
M  END

