
     RDKit          3D

 61 64  0  0  0  0  0  0  0  0999 V2000
    5.0879    3.7617   -0.1829 C   0  0  0  0  0  0  0  0  0  0  0  0
    5.3516    2.9174    1.0494 C   0  0  0  0  0  0  0  0  0  0  0  0
    5.8065    1.6449    0.6210 O   0  0  0  0  0  0  0  0  0  0  0  0
    6.1147    0.6939    1.5401 C   0  0  0  0  0  0  0  0  0  0  0  0
    6.0162    0.8685    2.9283 C   0  0  0  0  0  0  0  0  0  0  0  0
    6.3639   -0.1925    3.7727 C   0  0  0  0  0  0  0  0  0  0  0  0
    6.8107   -1.4109    3.2692 C   0  0  0  0  0  0  0  0  0  0  0  0
    6.9000   -1.5794    1.8757 C   0  0  0  0  0  0  0  0  0  0  0  0
    7.3513   -2.8173    1.3352 N   0  0  0  0  0  0  0  0  0  0  0  0
    7.0105   -4.1060    1.8439 C   0  0  0  0  0  0  0  0  0  0  0  0
    6.2901   -4.2872    2.7981 O   0  0  0  0  0  0  0  0  0  0  0  0
    7.6759   -5.1175    0.9889 C   0  0  0  0  0  0  0  0  0  0  0  0
    7.3900   -6.5506    1.1698 C   0  0  0  0  0  0  0  0  0  0  0  0
    7.2969   -7.1278    2.4513 C   0  0  0  0  0  0  0  0  0  0  0  0
    6.9870   -8.4748    2.6353 C   0  0  0  0  0  0  0  0  0  0  0  0
    6.7433   -9.2975    1.5209 C   0  0  0  0  0  0  0  0  0  0  0  0
    6.4202  -10.6630    1.6162 N   0  0  0  0  0  0  0  0  0  0  0  0
    6.3100  -11.4562    2.7409 C   0  0  0  0  0  0  0  0  0  0  0  0
    5.8922  -12.8920    2.4564 C   0  0  0  0  0  0  0  0  0  0  0  0
    6.5047  -11.0610    3.8742 O   0  0  0  0  0  0  0  0  0  0  0  0
    6.8168   -8.7309    0.2340 C   0  0  0  0  0  0  0  0  0  0  0  0
    7.1317   -7.3872    0.0648 C   0  0  0  0  0  0  0  0  0  0  0  0
    8.4011   -4.4491    0.0259 C   0  0  0  0  0  0  0  0  0  0  0  0
    9.2687   -4.9178   -0.9173 N   0  0  0  0  0  0  0  0  0  0  0  0
   10.0986   -6.1023   -0.6618 C   0  0  0  0  0  0  0  0  0  0  0  0
   10.2824   -6.9353   -1.9392 C   0  0  0  0  0  0  0  0  0  0  0  0
   10.7644   -6.1629   -3.0750 N   0  0  0  0  0  0  0  0  0  0  0  0
   12.1928   -5.9058   -3.0921 C   0  0  0  0  0  0  0  0  0  0  0  0
    9.9168   -4.9993   -3.2882 C   0  0  0  0  0  0  0  0  0  0  0  0
    9.7428   -4.1072   -2.0471 C   0  0  0  0  0  0  0  0  0  0  0  0
    8.1944   -2.9527    0.2374 C   0  0  0  0  0  0  0  0  0  0  0  0
    8.6876   -2.0464   -0.3965 O   0  0  0  0  0  0  0  0  0  0  0  0
    6.5499   -0.5348    1.0175 C   0  0  0  0  0  0  0  0  0  0  0  0
    4.7319    4.7620    0.1088 H   0  0  0  0  0  0  0  0  0  0  0  0
    4.3233    3.2911   -0.8198 H   0  0  0  0  0  0  0  0  0  0  0  0
    6.0066    3.8775   -0.7780 H   0  0  0  0  0  0  0  0  0  0  0  0
    4.4304    2.8079    1.6532 H   0  0  0  0  0  0  0  0  0  0  0  0
    6.1131    3.3950    1.6951 H   0  0  0  0  0  0  0  0  0  0  0  0
    5.6759    1.8103    3.3578 H   0  0  0  0  0  0  0  0  0  0  0  0
    6.2864   -0.0580    4.8547 H   0  0  0  0  0  0  0  0  0  0  0  0
    7.0700   -2.2282    3.9390 H   0  0  0  0  0  0  0  0  0  0  0  0
    7.4654   -6.5043    3.3297 H   0  0  0  0  0  0  0  0  0  0  0  0
    6.9295   -8.9020    3.6334 H   0  0  0  0  0  0  0  0  0  0  0  0
    6.2379  -11.1192    0.7306 H   0  0  0  0  0  0  0  0  0  0  0  0
    5.9794  -13.1870    1.4000 H   0  0  0  0  0  0  0  0  0  0  0  0
    4.8458  -13.0257    2.7749 H   0  0  0  0  0  0  0  0  0  0  0  0
    6.5077  -13.5612    3.0737 H   0  0  0  0  0  0  0  0  0  0  0  0
    6.6143   -9.3516   -0.6446 H   0  0  0  0  0  0  0  0  0  0  0  0
    7.1619   -6.9706   -0.9444 H   0  0  0  0  0  0  0  0  0  0  0  0
    9.6483   -6.7113    0.1291 H   0  0  0  0  0  0  0  0  0  0  0  0
   11.0850   -5.7599   -0.2896 H   0  0  0  0  0  0  0  0  0  0  0  0
    9.3093   -7.3833   -2.2089 H   0  0  0  0  0  0  0  0  0  0  0  0
   10.9771   -7.7663   -1.7368 H   0  0  0  0  0  0  0  0  0  0  0  0
   12.7400   -6.8613   -3.0446 H   0  0  0  0  0  0  0  0  0  0  0  0
   12.5755   -5.2652   -2.2670 H   0  0  0  0  0  0  0  0  0  0  0  0
   12.4671   -5.4150   -4.0398 H   0  0  0  0  0  0  0  0  0  0  0  0
    8.9173   -5.3503   -3.6048 H   0  0  0  0  0  0  0  0  0  0  0  0
   10.3256   -4.3935   -4.1130 H   0  0  0  0  0  0  0  0  0  0  0  0
    9.0256   -3.3075   -2.2540 H   0  0  0  0  0  0  0  0  0  0  0  0
   10.6986   -3.6142   -1.7858 H   0  0  0  0  0  0  0  0  0  0  0  0
    6.6207   -0.6397   -0.0634 H   0  0  0  0  0  0  0  0  0  0  0  0
  1  2  1  0
  1 34  1  0
  1 35  1  0
  1 36  1  0
  2  3  1  0
  2 37  1  0
  2 38  1  0
  3  4  1  0
  4  5  2  0
  4 33  1  0
  5  6  1  0
  5 39  1  0
  6  7  2  0
  6 40  1  0
  7  8  1  0
  7 41  1  0
  8  9  1  0
  8 33  2  0
  9 10  1  0
  9 31  1  0
 10 11  2  0
 10 12  1  0
 12 13  1  0
 12 23  2  0
 13 14  2  0
 13 22  1  0
 14 15  1  0
 14 42  1  0
 15 16  2  0
 15 43  1  0
 16 17  1  0
 16 21  1  0
 17 18  1  0
 17 44  1  0
 18 19  1  0
 18 20  2  0
 19 45  1  0
 19 46  1  0
 19 47  1  0
 21 22  2  0
 21 48  1  0
 22 49  1  0
 23 24  1  0
 23 31  1  0
 24 25  1  0
 24 30  1  0
 25 26  1  0
 25 50  1  0
 25 51  1  0
 26 27  1  0
 26 52  1  0
 26 53  1  0
 27 28  1  0
 27 29  1  0
 28 54  1  0
 28 55  1  0
 28 56  1  0
 29 30  1  0
 29 57  1  0
 29 58  1  0
 30 59  1  0
 30 60  1  0
 31 32  2  0
 33 61  1  0
M  END

