
     RDKit          3D

 50 52  0  0  0  0  0  0  0  0999 V2000
    3.3797   -0.0145    1.3948 C   0  0  0  0  0  0  0  0  0  0  0  0
    3.9712   -1.2143    0.6324 C   0  0  1  0  0  0  0  0  0  0  0  0
    5.4110   -1.4942    1.1042 C   0  0  0  0  0  0  0  0  0  0  0  0
    3.0963   -2.4576    0.8527 C   0  0  0  0  0  0  0  0  0  0  0  0
    3.9533   -0.9465   -0.8223 N   0  0  0  0  0  0  0  0  0  0  0  0
    4.6306    0.0440   -1.4480 C   0  0  0  0  0  0  0  0  0  0  0  0
    5.2812    0.9166   -0.8890 O   0  0  0  0  0  0  0  0  0  0  0  0
    4.5093   -0.0076   -3.0024 C   0  0  1  0  0  0  0  0  0  0  0  0
    4.9414    1.3283   -3.6273 C   0  0  0  0  0  0  0  0  0  0  0  0
    5.7917    0.9336   -5.2002 S   0  0  0  0  0  0  0  0  0  0  0  0
    6.4612   -0.5684   -4.3874 C   0  0  0  0  0  0  0  0  0  0  0  0
    5.3602   -1.0760   -3.5790 N   0  0  0  0  0  0  0  0  0  0  0  0
    4.8706   -2.3473   -3.6088 C   0  0  0  0  0  0  0  0  0  0  0  0
    3.7576   -2.6167   -3.1406 O   0  0  0  0  0  0  0  0  0  0  0  0
    5.6822   -3.4439   -4.2376 C   0  0  0  0  0  0  0  0  0  0  0  0
    4.9563   -4.4145   -4.8824 C   0  0  0  0  0  0  0  0  0  0  0  0
    5.5144   -5.5196   -5.4291 N   0  0  0  0  0  0  0  0  0  0  0  0
    4.9417   -6.1937   -5.9252 H   0  0  0  0  0  0  0  0  0  0  0  0
    6.8693   -5.7679   -5.3326 C   0  0  0  0  0  0  0  0  0  0  0  0
    7.4330   -6.9226   -5.9149 C   0  0  0  0  0  0  0  0  0  0  0  0
    6.5283   -7.7271   -6.6111 O   0  0  0  0  0  0  0  0  0  0  0  0
    6.5481   -9.0790   -6.4754 C   0  0  1  0  0  0  0  0  0  0  0  0
    6.5768   -9.4551   -5.1945 F   0  0  0  0  0  0  0  0  0  0  0  0
    5.4457   -9.5491   -7.0414 F   0  0  0  0  0  0  0  0  0  0  0  0
    7.6058   -9.6330   -7.0844 F   0  0  0  0  0  0  0  0  0  0  0  0
    8.7935   -7.1702   -5.8243 C   0  0  0  0  0  0  0  0  0  0  0  0
    9.6135   -6.2669   -5.1225 C   0  0  0  0  0  0  0  0  0  0  0  0
    9.0723   -5.1292   -4.5405 C   0  0  0  0  0  0  0  0  0  0  0  0
    7.6957   -4.8591   -4.6424 C   0  0  0  0  0  0  0  0  0  0  0  0
    7.1256   -3.6274   -4.0223 C   0  0  0  0  0  0  0  0  0  0  0  0
    7.8320   -2.8563   -3.3804 O   0  0  0  0  0  0  0  0  0  0  0  0
    3.3648   -0.2206    2.4769 H   0  0  0  0  0  0  0  0  0  0  0  0
    2.3461    0.1804    1.0671 H   0  0  0  0  0  0  0  0  0  0  0  0
    3.9785    0.8887    1.2162 H   0  0  0  0  0  0  0  0  0  0  0  0
    5.4239   -1.7194    2.1826 H   0  0  0  0  0  0  0  0  0  0  0  0
    6.0529   -0.6217    0.9206 H   0  0  0  0  0  0  0  0  0  0  0  0
    5.8347   -2.3572    0.5663 H   0  0  0  0  0  0  0  0  0  0  0  0
    3.0717   -2.7231    1.9202 H   0  0  0  0  0  0  0  0  0  0  0  0
    3.4897   -3.3228    0.2945 H   0  0  0  0  0  0  0  0  0  0  0  0
    2.0605   -2.2770    0.5221 H   0  0  0  0  0  0  0  0  0  0  0  0
    3.5445   -1.6542   -1.4350 H   0  0  0  0  0  0  0  0  0  0  0  0
    3.4691   -0.2558   -3.2616 H   0  0  0  0  0  0  0  0  0  0  0  0
    5.6197    1.8514   -2.9391 H   0  0  0  0  0  0  0  0  0  0  0  0
    4.0786    1.9756   -3.8345 H   0  0  0  0  0  0  0  0  0  0  0  0
    7.3321   -0.3230   -3.7635 H   0  0  0  0  0  0  0  0  0  0  0  0
    6.7638   -1.2898   -5.1530 H   0  0  0  0  0  0  0  0  0  0  0  0
    3.8712   -4.3250   -4.9659 H   0  0  0  0  0  0  0  0  0  0  0  0
    9.2182   -8.0562   -6.2960 H   0  0  0  0  0  0  0  0  0  0  0  0
   10.6840   -6.4692   -5.0479 H   0  0  0  0  0  0  0  0  0  0  0  0
    9.6854   -4.4109   -3.9934 H   0  0  0  0  0  0  0  0  0  0  0  0
  1  2  1  0
  1 32  1  0
  1 33  1  0
  1 34  1  0
  2  3  1  0
  2  4  1  0
  2  5  1  6
  3 35  1  0
  3 36  1  0
  3 37  1  0
  4 38  1  0
  4 39  1  0
  4 40  1  0
  5  6  1  0
  5 41  1  0
  6  7  2  0
  6  8  1  0
  8  9  1  0
  8 12  1  0
  8 42  1  1
  9 10  1  0
  9 43  1  0
  9 44  1  0
 10 11  1  0
 11 12  1  0
 11 45  1  0
 11 46  1  0
 12 13  1  0
 13 14  2  0
 13 15  1  0
 15 16  2  0
 15 30  1  0
 16 17  1  0
 16 47  1  0
 17 18  1  0
 17 19  1  0
 19 20  2  0
 19 29  1  0
 20 21  1  0
 20 26  1  0
 21 22  1  0
 22 23  1  1
 22 24  1  0
 22 25  1  0
 26 27  2  0
 26 48  1  0
 27 28  1  0
 27 49  1  0
 28 29  2  0
 28 50  1  0
 29 30  1  0
 30 31  2  0
M  END

