
     RDKit          3D

 33 34  0  0  0  0  0  0  0  0999 V2000
    1.0996   -0.2099    0.3747 C   0  0  0  0  0  0  0  0  0  0  0  0
    2.5781   -0.1383    0.0855 C   0  0  0  0  0  0  0  0  0  0  0  0
    3.2256    1.1153    0.0045 C   0  0  0  0  0  0  0  0  0  0  0  0
    4.5835    1.1829   -0.2654 C   0  0  0  0  0  0  0  0  0  0  0  0
    5.3624    0.0240   -0.4682 C   0  0  0  0  0  0  0  0  0  0  0  0
    6.8153    0.0417   -0.7782 C   0  0  0  0  0  0  0  0  0  0  0  0
    7.4665   -1.0156   -0.8572 O   0  0  0  0  0  0  0  0  0  0  0  0
    7.4232    1.2416   -0.9789 N   0  0  0  0  0  0  0  0  0  0  0  0
    8.8368    1.3755   -1.2869 C   0  0  0  0  0  0  0  0  0  0  0  0
    9.5210    2.4499   -0.4636 C   0  0  0  0  0  0  0  0  0  0  0  0
    9.3393    2.5176    0.9275 C   0  0  0  0  0  0  0  0  0  0  0  0
    9.9947    3.4906    1.6850 C   0  0  0  0  0  0  0  0  0  0  0  0
   10.8447    4.4124    1.0639 C   0  0  0  0  0  0  0  0  0  0  0  0
   11.0316    4.3549   -0.3193 C   0  0  0  0  0  0  0  0  0  0  0  0
   10.3705    3.3820   -1.0761 C   0  0  0  0  0  0  0  0  0  0  0  0
    4.7160   -1.2411   -0.3683 C   0  0  0  0  0  0  0  0  0  0  0  0
    5.3697   -2.3908   -0.5181 O   0  0  0  0  0  0  0  0  0  0  0  0
    3.3321   -1.2927   -0.1008 C   0  0  0  0  0  0  0  0  0  0  0  0
    0.5189    0.3135   -0.4033 H   0  0  0  0  0  0  0  0  0  0  0  0
    0.8600    0.2779    1.3344 H   0  0  0  0  0  0  0  0  0  0  0  0
    0.7437   -1.2490    0.4232 H   0  0  0  0  0  0  0  0  0  0  0  0
    2.6548    2.0343    0.1591 H   0  0  0  0  0  0  0  0  0  0  0  0
    5.0493    2.1715   -0.3042 H   0  0  0  0  0  0  0  0  0  0  0  0
    6.8627    2.0834   -0.9760 H   0  0  0  0  0  0  0  0  0  0  0  0
    8.9812    1.5883   -2.3613 H   0  0  0  0  0  0  0  0  0  0  0  0
    9.2848    0.3877   -1.0988 H   0  0  0  0  0  0  0  0  0  0  0  0
    8.6764    1.8004    1.4188 H   0  0  0  0  0  0  0  0  0  0  0  0
    9.8438    3.5284    2.7671 H   0  0  0  0  0  0  0  0  0  0  0  0
   11.3575    5.1738    1.6571 H   0  0  0  0  0  0  0  0  0  0  0  0
   11.6902    5.0732   -0.8145 H   0  0  0  0  0  0  0  0  0  0  0  0
   10.5169    3.3462   -2.1598 H   0  0  0  0  0  0  0  0  0  0  0  0
    6.3269   -2.1479   -0.6709 H   0  0  0  0  0  0  0  0  0  0  0  0
    2.8734   -2.2822   -0.0391 H   0  0  0  0  0  0  0  0  0  0  0  0
  1  2  1  0
  1 19  1  0
  1 20  1  0
  1 21  1  0
  2  3  2  0
  2 18  1  0
  3  4  1  0
  3 22  1  0
  4  5  2  0
  4 23  1  0
  5  6  1  0
  5 16  1  0
  6  7  2  0
  6  8  1  0
  8  9  1  0
  8 24  1  0
  9 10  1  0
  9 25  1  0
  9 26  1  0
 10 11  2  0
 10 15  1  0
 11 12  1  0
 11 27  1  0
 12 13  2  0
 12 28  1  0
 13 14  1  0
 13 29  1  0
 14 15  2  0
 14 30  1  0
 15 31  1  0
 16 17  1  0
 16 18  2  0
 17 32  1  0
 18 33  1  0
M  END

