
     RDKit          3D

 29 30  0  0  0  0  0  0  0  0999 V2000
    1.2443    0.1169   -0.1340 C   0  0  0  0  0  0  0  0  0  0  0  0
    2.6482    0.0951    0.2740 N   0  0  0  0  0  0  0  0  0  0  0  0
    3.3454   -1.1574    0.3074 C   0  0  0  0  0  0  0  0  0  0  0  0
    4.1634   -1.4718    1.4039 C   0  0  0  0  0  0  0  0  0  0  0  0
    4.8383   -2.6859    1.4626 C   0  0  0  0  0  0  0  0  0  0  0  0
    4.7062   -3.6427    0.4334 C   0  0  0  0  0  0  0  0  0  0  0  0
    5.3325   -4.8734    0.5209 N   0  0  0  0  0  0  0  0  0  0  0  0
    3.8765   -3.3249   -0.6611 C   0  0  0  0  0  0  0  0  0  0  0  0
    3.2171   -2.0990   -0.7253 C   0  0  0  0  0  0  0  0  0  0  0  0
    3.5493    1.4896   -0.0576 S   0  0  1  0  0  0  0  0  0  0  0  0
    2.6380    2.6250    0.1351 O   0  0  0  0  0  0  0  0  0  0  0  0
    4.8141    1.3656    0.6556 O   0  0  0  0  0  0  0  0  0  0  0  0
    3.9040    1.4924   -1.7900 C   0  0  0  0  0  0  0  0  0  0  0  0
    4.8180    0.8194   -2.5808 C   0  0  0  0  0  0  0  0  0  0  0  0
    4.6328    1.1571   -3.8917 N   0  0  0  0  0  0  0  0  0  0  0  0
    3.6313    2.0151   -3.9060 C   0  0  0  0  0  0  0  0  0  0  0  0
    3.1434    2.2458   -2.6578 N   0  0  0  0  0  0  0  0  0  0  0  0
    2.4302    2.9047   -2.3595 H   0  0  0  0  0  0  0  0  0  0  0  0
    0.7265   -0.7009    0.3868 H   0  0  0  0  0  0  0  0  0  0  0  0
    1.0977   -0.0162   -1.2231 H   0  0  0  0  0  0  0  0  0  0  0  0
    0.7953    1.0701    0.1705 H   0  0  0  0  0  0  0  0  0  0  0  0
    4.2738   -0.7405    2.2049 H   0  0  0  0  0  0  0  0  0  0  0  0
    5.4725   -2.9087    2.3253 H   0  0  0  0  0  0  0  0  0  0  0  0
    6.1235   -4.9438    1.1495 H   0  0  0  0  0  0  0  0  0  0  0  0
    5.4503   -5.3936   -0.3402 H   0  0  0  0  0  0  0  0  0  0  0  0
    3.7530   -4.0481   -1.4722 H   0  0  0  0  0  0  0  0  0  0  0  0
    2.5930   -1.8780   -1.5938 H   0  0  0  0  0  0  0  0  0  0  0  0
    5.5906    0.1254   -2.2550 H   0  0  0  0  0  0  0  0  0  0  0  0
    3.2227    2.5034   -4.7911 H   0  0  0  0  0  0  0  0  0  0  0  0
  1  2  1  0
  1 19  1  0
  1 20  1  0
  1 21  1  0
  2  3  1  0
 10  2  1  6
  3  4  2  0
  3  9  1  0
  4  5  1  0
  4 22  1  0
  5  6  2  0
  5 23  1  0
  6  7  1  0
  6  8  1  0
  7 24  1  0
  7 25  1  0
  8  9  2  0
  8 26  1  0
  9 27  1  0
 10 11  2  0
 10 12  2  0
 10 13  1  0
 13 14  2  0
 13 17  1  0
 14 15  1  0
 14 28  1  0
 15 16  2  0
 16 17  1  0
 16 29  1  0
 17 18  1  0
M  END

