
     RDKit          3D

 76 77  0  0  0  0  0  0  0  0999 V2000
    2.6058   -1.7186    1.7943 O   0  0  0  0  0  0  0  0  0  0  0  0
    2.6899   -2.2710    0.4818 C   0  0  0  0  0  0  0  0  0  0  0  0
    1.2629   -2.5502    0.0046 C   0  0  2  0  0  0  0  0  0  0  0  0
    0.7128   -1.6058    0.1799 H   0  0  0  0  0  0  0  0  0  0  0  0
    0.5406   -3.6376    0.8358 C   0  0  1  0  0  0  0  0  0  0  0  0
    1.0548   -4.6089    0.6668 H   0  0  0  0  0  0  0  0  0  0  0  0
    0.4726   -3.3592    2.2221 O   0  0  0  0  0  0  0  0  0  0  0  0
   -0.8999   -3.7663    0.3435 C   0  0  2  0  0  0  0  0  0  0  0  0
   -1.3986   -2.7949    0.5462 H   0  0  0  0  0  0  0  0  0  0  0  0
   -1.5896   -4.8127    0.9997 O   0  0  0  0  0  0  0  0  0  0  0  0
   -0.9715   -4.0194   -1.1553 C   0  0  1  0  0  0  0  0  0  0  0  0
   -0.4989   -5.0052   -1.3500 H   0  0  0  0  0  0  0  0  0  0  0  0
   -2.3060   -4.0156   -1.6117 O   0  0  0  0  0  0  0  0  0  0  0  0
   -0.1861   -2.9251   -1.8927 C   0  0  0  0  0  0  0  0  0  0  0  0
    1.1943   -2.8153   -1.4328 N   0  0  0  0  0  0  0  0  0  0  0  0
    2.1047   -3.7966   -2.0295 C   0  0  0  0  0  0  0  0  0  0  0  0
    2.7058   -3.3112   -3.3545 C   0  0  0  0  0  0  0  0  0  0  0  0
    3.6243   -4.3408   -4.0174 C   0  0  0  0  0  0  0  0  0  0  0  0
    4.2449   -3.8599   -5.3325 C   0  0  0  0  0  0  0  0  0  0  0  0
    5.1561   -4.8921   -6.0031 C   0  0  0  0  0  0  0  0  0  0  0  0
    5.7863   -4.4062   -7.3116 C   0  0  0  0  0  0  0  0  0  0  0  0
    6.6878   -5.4421   -7.9899 C   0  0  0  0  0  0  0  0  0  0  0  0
    7.3327   -4.9445   -9.2865 C   0  0  0  0  0  0  0  0  0  0  0  0
    8.2209   -5.9840   -9.9733 C   0  0  0  0  0  0  0  0  0  0  0  0
    8.9180   -5.4757  -11.2446 C   0  0  0  0  0  0  0  0  0  0  0  0
    9.8541   -4.3785  -10.9885 N   0  0  0  0  0  0  0  0  0  0  0  0
   11.1561   -4.7891  -10.4811 C   0  0  0  0  0  0  0  0  0  0  0  0
   12.1205   -5.2489  -11.5931 C   0  0  2  0  0  0  0  0  0  0  0  0
   11.7191   -6.1529  -12.0915 H   0  0  0  0  0  0  0  0  0  0  0  0
   13.4371   -5.4950  -11.1168 O   0  0  0  0  0  0  0  0  0  0  0  0
   12.2428   -4.1578  -12.6469 C   0  0  1  0  0  0  0  0  0  0  0  0
   12.7106   -3.2746  -12.1637 H   0  0  0  0  0  0  0  0  0  0  0  0
   13.0103   -4.5696  -13.7622 O   0  0  0  0  0  0  0  0  0  0  0  0
   10.8716   -3.7364  -13.1576 C   0  0  2  0  0  0  0  0  0  0  0  0
   10.4050   -4.6109  -13.6573 H   0  0  0  0  0  0  0  0  0  0  0  0
   11.0022   -2.6693  -14.0850 O   0  0  0  0  0  0  0  0  0  0  0  0
    9.9778   -3.3029  -11.9774 C   0  0  1  0  0  0  0  0  0  0  0  0
   10.4946   -2.4656  -11.4730 H   0  0  0  0  0  0  0  0  0  0  0  0
    8.6401   -2.7055  -12.4489 C   0  0  0  0  0  0  0  0  0  0  0  0
    8.8084   -1.4237  -12.9994 O   0  0  0  0  0  0  0  0  0  0  0  0
    3.4961   -1.6225    2.1552 H   0  0  0  0  0  0  0  0  0  0  0  0
    3.2943   -3.1967    0.4983 H   0  0  0  0  0  0  0  0  0  0  0  0
    3.1656   -1.5630   -0.2215 H   0  0  0  0  0  0  0  0  0  0  0  0
    1.2346   -2.8003    2.4530 H   0  0  0  0  0  0  0  0  0  0  0  0
   -1.4798   -4.6618    1.9501 H   0  0  0  0  0  0  0  0  0  0  0  0
   -2.8061   -4.5676   -0.9926 H   0  0  0  0  0  0  0  0  0  0  0  0
   -0.7090   -1.9648   -1.7365 H   0  0  0  0  0  0  0  0  0  0  0  0
   -0.2064   -3.1220   -2.9749 H   0  0  0  0  0  0  0  0  0  0  0  0
    1.6066   -4.7737   -2.1972 H   0  0  0  0  0  0  0  0  0  0  0  0
    2.9278   -4.0121   -1.3318 H   0  0  0  0  0  0  0  0  0  0  0  0
    3.2560   -2.3724   -3.1671 H   0  0  0  0  0  0  0  0  0  0  0  0
    1.8885   -3.0465   -4.0487 H   0  0  0  0  0  0  0  0  0  0  0  0
    3.0582   -5.2730   -4.2018 H   0  0  0  0  0  0  0  0  0  0  0  0
    4.4331   -4.6190   -3.3151 H   0  0  0  0  0  0  0  0  0  0  0  0
    4.8179   -2.9323   -5.1473 H   0  0  0  0  0  0  0  0  0  0  0  0
    3.4379   -3.5759   -6.0331 H   0  0  0  0  0  0  0  0  0  0  0  0
    4.5795   -5.8160   -6.1964 H   0  0  0  0  0  0  0  0  0  0  0  0
    5.9578   -5.1835   -5.2986 H   0  0  0  0  0  0  0  0  0  0  0  0
    6.3707   -3.4877   -7.1168 H   0  0  0  0  0  0  0  0  0  0  0  0
    4.9855   -4.1058   -8.0126 H   0  0  0  0  0  0  0  0  0  0  0  0
    6.1003   -6.3564   -8.1964 H   0  0  0  0  0  0  0  0  0  0  0  0
    7.4815   -5.7517   -7.2841 H   0  0  0  0  0  0  0  0  0  0  0  0
    7.9366   -4.0445   -9.0805 H   0  0  0  0  0  0  0  0  0  0  0  0
    6.5404   -4.6237   -9.9889 H   0  0  0  0  0  0  0  0  0  0  0  0
    7.6198   -6.8703  -10.2466 H   0  0  0  0  0  0  0  0  0  0  0  0
    8.9781   -6.3509   -9.2563 H   0  0  0  0  0  0  0  0  0  0  0  0
    8.1460   -5.1224  -11.9429 H   0  0  0  0  0  0  0  0  0  0  0  0
    9.4039   -6.3377  -11.7498 H   0  0  0  0  0  0  0  0  0  0  0  0
   11.0285   -5.5937   -9.7388 H   0  0  0  0  0  0  0  0  0  0  0  0
   11.6329   -3.9446   -9.9514 H   0  0  0  0  0  0  0  0  0  0  0  0
   13.4371   -6.3115  -10.6017 H   0  0  0  0  0  0  0  0  0  0  0  0
   13.8602   -4.8798  -13.4178 H   0  0  0  0  0  0  0  0  0  0  0  0
   11.7081   -2.9135  -14.7024 H   0  0  0  0  0  0  0  0  0  0  0  0
    8.1438   -3.3917  -13.1674 H   0  0  0  0  0  0  0  0  0  0  0  0
    7.9728   -2.6097  -11.5770 H   0  0  0  0  0  0  0  0  0  0  0  0
    9.5033   -1.5032  -13.6733 H   0  0  0  0  0  0  0  0  0  0  0  0
  1  2  1  0
  1 41  1  0
  2  3  1  0
  2 42  1  0
  2 43  1  0
  3  4  1  6
  3  5  1  0
  3 15  1  0
  5  6  1  1
  5  7  1  0
  5  8  1  0
  7 44  1  0
  8  9  1  6
  8 10  1  0
  8 11  1  0
 10 45  1  0
 11 12  1  1
 11 13  1  0
 11 14  1  0
 13 46  1  0
 14 15  1  0
 14 47  1  0
 14 48  1  0
 15 16  1  0
 16 17  1  0
 16 49  1  0
 16 50  1  0
 17 18  1  0
 17 51  1  0
 17 52  1  0
 18 19  1  0
 18 53  1  0
 18 54  1  0
 19 20  1  0
 19 55  1  0
 19 56  1  0
 20 21  1  0
 20 57  1  0
 20 58  1  0
 21 22  1  0
 21 59  1  0
 21 60  1  0
 22 23  1  0
 22 61  1  0
 22 62  1  0
 23 24  1  0
 23 63  1  0
 23 64  1  0
 24 25  1  0
 24 65  1  0
 24 66  1  0
 25 26  1  0
 25 67  1  0
 25 68  1  0
 26 27  1  0
 26 37  1  0
 27 28  1  0
 27 69  1  0
 27 70  1  0
 28 29  1  6
 28 30  1  0
 28 31  1  0
 30 71  1  0
 31 32  1  1
 31 33  1  0
 31 34  1  0
 33 72  1  0
 34 35  1  6
 34 36  1  0
 34 37  1  0
 36 73  1  0
 37 38  1  1
 37 39  1  0
 39 40  1  0
 39 74  1  0
 39 75  1  0
 40 76  1  0
M  END

