
     RDKit          3D

 61 62  0  0  0  0  0  0  0  0999 V2000
    0.8676   -2.0858   -7.3123 C   0  0  0  0  0  0  0  0  0  0  0  0
    1.7115   -3.3432   -7.1087 C   0  0  0  0  0  0  0  0  0  0  0  0
    2.6360   -3.2327   -5.9904 N   0  0  0  0  0  0  0  0  0  0  0  0
    3.9917   -3.2531   -6.1392 C   0  0  0  0  0  0  0  0  0  0  0  0
    4.5272   -3.3588   -7.2331 O   0  0  0  0  0  0  0  0  0  0  0  0
    4.8350   -3.2004   -4.8355 C   0  0  1  0  0  0  0  0  0  0  0  0
    4.1623   -2.3812   -3.7174 C   0  0  0  0  0  0  0  0  0  0  0  0
    5.0413   -4.6602   -4.3745 C   0  0  0  0  0  0  0  0  0  0  0  0
    6.1896   -2.5614   -5.2328 C   0  0  0  0  0  0  0  0  0  0  0  0
    7.1608   -2.5869   -4.1510 N   0  0  0  0  0  0  0  0  0  0  0  0
    8.5364   -2.4041   -4.3145 C   0  0  0  0  0  0  0  0  0  0  0  0
    9.3305   -1.9858   -3.3914 N   0  0  0  0  0  0  0  0  0  0  0  0
    8.7926   -1.5819   -2.1202 C   0  0  0  0  0  0  0  0  0  0  0  0
    9.0364   -2.7075   -5.5664 N   0  0  0  0  0  0  0  0  0  0  0  0
   10.4722   -2.7008   -5.8298 C   0  0  1  0  0  0  0  0  0  0  0  0
   11.2149   -3.9197   -5.2508 C   0  0  0  0  0  0  0  0  0  0  0  0
   10.8556   -5.2074   -5.9873 C   0  0  0  0  0  0  0  0  0  0  0  0
   11.0766   -5.0913   -7.4318 N   0  0  0  0  0  0  0  0  0  0  0  0
   11.4356   -6.2196   -8.1592 C   0  0  0  0  0  0  0  0  0  0  0  0
   11.2992   -6.3075   -9.5690 C   0  0  0  0  0  0  0  0  0  0  0  0
   11.7465   -7.4532  -10.2177 C   0  0  0  0  0  0  0  0  0  0  0  0
   12.3088   -8.5190   -9.4995 C   0  0  0  0  0  0  0  0  0  0  0  0
   12.8353   -9.7661  -10.1632 C   0  0  0  0  0  0  0  0  0  0  0  0
   12.3550   -8.3420   -8.1100 C   0  0  0  0  0  0  0  0  0  0  0  0
   11.9410   -7.2546   -7.4676 N   0  0  0  0  0  0  0  0  0  0  0  0
   10.4240   -3.9585   -8.0675 C   0  0  0  0  0  0  0  0  0  0  0  0
   10.7291   -2.6396   -7.3410 C   0  0  0  0  0  0  0  0  0  0  0  0
    0.1789   -2.2177   -8.1621 H   0  0  0  0  0  0  0  0  0  0  0  0
    1.5058   -1.2128   -7.5199 H   0  0  0  0  0  0  0  0  0  0  0  0
    0.2565   -1.8581   -6.4224 H   0  0  0  0  0  0  0  0  0  0  0  0
    2.3268   -3.5462   -7.9962 H   0  0  0  0  0  0  0  0  0  0  0  0
    1.0560   -4.2196   -6.9557 H   0  0  0  0  0  0  0  0  0  0  0  0
    2.2481   -3.1390   -5.0611 H   0  0  0  0  0  0  0  0  0  0  0  0
    3.2328   -2.8481   -3.3526 H   0  0  0  0  0  0  0  0  0  0  0  0
    3.9296   -1.3545   -4.0420 H   0  0  0  0  0  0  0  0  0  0  0  0
    4.8154   -2.3204   -2.8322 H   0  0  0  0  0  0  0  0  0  0  0  0
    4.0824   -5.1258   -4.0975 H   0  0  0  0  0  0  0  0  0  0  0  0
    5.7149   -4.6958   -3.5059 H   0  0  0  0  0  0  0  0  0  0  0  0
    5.4917   -5.2616   -5.1791 H   0  0  0  0  0  0  0  0  0  0  0  0
    6.0056   -1.5335   -5.6053 H   0  0  0  0  0  0  0  0  0  0  0  0
    6.5567   -3.1260   -6.0968 H   0  0  0  0  0  0  0  0  0  0  0  0
    6.8310   -2.1567   -3.2943 H   0  0  0  0  0  0  0  0  0  0  0  0
    9.5779   -1.1006   -1.5157 H   0  0  0  0  0  0  0  0  0  0  0  0
    8.4082   -2.4342   -1.5197 H   0  0  0  0  0  0  0  0  0  0  0  0
    7.9602   -0.8435   -2.1899 H   0  0  0  0  0  0  0  0  0  0  0  0
    8.4694   -3.3103   -6.1472 H   0  0  0  0  0  0  0  0  0  0  0  0
   10.8616   -1.7924   -5.3486 H   0  0  0  0  0  0  0  0  0  0  0  0
   10.9790   -4.0106   -4.1803 H   0  0  0  0  0  0  0  0  0  0  0  0
   12.3009   -3.7428   -5.3352 H   0  0  0  0  0  0  0  0  0  0  0  0
    9.7902   -5.4603   -5.7932 H   0  0  0  0  0  0  0  0  0  0  0  0
   11.4509   -6.0538   -5.6299 H   0  0  0  0  0  0  0  0  0  0  0  0
   10.8379   -5.5122  -10.1519 H   0  0  0  0  0  0  0  0  0  0  0  0
   11.6420   -7.5237  -11.3051 H   0  0  0  0  0  0  0  0  0  0  0  0
   12.3282   -9.9575  -11.1218 H   0  0  0  0  0  0  0  0  0  0  0  0
   12.6959  -10.6534   -9.5253 H   0  0  0  0  0  0  0  0  0  0  0  0
   13.9165   -9.6895  -10.3775 H   0  0  0  0  0  0  0  0  0  0  0  0
   12.7521   -9.1484   -7.4776 H   0  0  0  0  0  0  0  0  0  0  0  0
    9.3236   -4.1204   -8.1355 H   0  0  0  0  0  0  0  0  0  0  0  0
   10.7789   -3.8617   -9.1014 H   0  0  0  0  0  0  0  0  0  0  0  0
   10.1350   -1.8295   -7.7944 H   0  0  0  0  0  0  0  0  0  0  0  0
   11.7931   -2.3983   -7.4973 H   0  0  0  0  0  0  0  0  0  0  0  0
  1  2  1  0
  1 28  1  0
  1 29  1  0
  1 30  1  0
  2  3  1  0
  2 31  1  0
  2 32  1  0
  3  4  1  0
  3 33  1  0
  4  5  2  0
  6  4  1  6
  6  7  1  0
  6  8  1  0
  6  9  1  0
  7 34  1  0
  7 35  1  0
  7 36  1  0
  8 37  1  0
  8 38  1  0
  8 39  1  0
  9 10  1  0
  9 40  1  0
  9 41  1  0
 10 11  1  0
 10 42  1  0
 11 12  2  0
 11 14  1  0
 12 13  1  0
 13 43  1  0
 13 44  1  0
 13 45  1  0
 14 15  1  0
 14 46  1  0
 15 16  1  0
 15 27  1  0
 15 47  1  1
 16 17  1  0
 16 48  1  0
 16 49  1  0
 17 18  1  0
 17 50  1  0
 17 51  1  0
 18 19  1  0
 18 26  1  0
 19 20  2  0
 19 25  1  0
 20 21  1  0
 20 52  1  0
 21 22  2  0
 21 53  1  0
 22 23  1  0
 22 24  1  0
 23 54  1  0
 23 55  1  0
 23 56  1  0
 24 25  2  0
 24 57  1  0
 26 27  1  0
 26 58  1  0
 26 59  1  0
 27 60  1  0
 27 61  1  0
M  END

