
     RDKit          3D

 39 40  0  0  0  0  0  0  0  0999 V2000
    1.5572    0.5163    0.2215 C   0  0  0  0  0  0  0  0  0  0  0  0
    2.5906    0.1208   -0.8233 C   0  0  1  0  0  0  0  0  0  0  0  0
    1.9962   -0.0886   -2.2120 C   0  0  0  0  0  0  0  0  0  0  0  0
    3.5545    1.1974   -0.8585 O   0  0  0  0  0  0  0  0  0  0  0  0
    4.8256    0.9693   -1.2146 C   0  0  0  0  0  0  0  0  0  0  0  0
    5.7075    2.0703   -1.2346 C   0  0  0  0  0  0  0  0  0  0  0  0
    6.9831    1.9059   -1.5683 N   0  0  0  0  0  0  0  0  0  0  0  0
    7.4085    0.6853   -1.8802 C   0  0  0  0  0  0  0  0  0  0  0  0
    6.5189   -0.4079   -1.8581 C   0  0  0  0  0  0  0  0  0  0  0  0
    7.0086   -1.6171   -2.1733 O   0  0  0  0  0  0  0  0  0  0  0  0
    6.1565   -2.7860   -2.1560 C   0  0  1  0  0  0  0  0  0  0  0  0
    5.4641   -2.9276   -3.5222 C   0  0  0  0  0  0  0  0  0  0  0  0
    6.3729   -3.2032   -4.6249 N   0  0  0  0  0  0  0  0  0  0  0  0
    7.2279   -4.3600   -4.3674 C   0  0  0  0  0  0  0  0  0  0  0  0
    8.0017   -4.2716   -3.0413 C   0  0  0  0  0  0  0  0  0  0  0  0
    7.0737   -3.9832   -1.8407 C   0  0  2  0  0  0  0  0  0  0  0  0
    6.2640   -5.2112   -1.4004 C   0  0  0  0  0  0  0  0  0  0  0  0
    5.2371   -0.2563   -1.5328 N   0  0  0  0  0  0  0  0  0  0  0  0
    0.7920   -0.2694    0.3183 H   0  0  0  0  0  0  0  0  0  0  0  0
    1.0566    1.4553   -0.0631 H   0  0  0  0  0  0  0  0  0  0  0  0
    2.0317    0.6632    1.2033 H   0  0  0  0  0  0  0  0  0  0  0  0
    3.1156   -0.7946   -0.5089 H   0  0  0  0  0  0  0  0  0  0  0  0
    1.5032    0.8316   -2.5641 H   0  0  0  0  0  0  0  0  0  0  0  0
    1.2468   -0.8957   -2.1888 H   0  0  0  0  0  0  0  0  0  0  0  0
    2.7756   -0.3683   -2.9354 H   0  0  0  0  0  0  0  0  0  0  0  0
    5.3448    3.0689   -0.9746 H   0  0  0  0  0  0  0  0  0  0  0  0
    8.4573    0.5369   -2.1530 H   0  0  0  0  0  0  0  0  0  0  0  0
    5.4035   -2.6562   -1.3640 H   0  0  0  0  0  0  0  0  0  0  0  0
    4.8915   -2.0123   -3.7377 H   0  0  0  0  0  0  0  0  0  0  0  0
    4.7261   -3.7474   -3.4535 H   0  0  0  0  0  0  0  0  0  0  0  0
    6.9530   -2.3813   -4.7942 H   0  0  0  0  0  0  0  0  0  0  0  0
    7.9285   -4.4765   -5.2105 H   0  0  0  0  0  0  0  0  0  0  0  0
    6.5895   -5.2624   -4.3755 H   0  0  0  0  0  0  0  0  0  0  0  0
    8.7415   -3.4568   -3.1182 H   0  0  0  0  0  0  0  0  0  0  0  0
    8.5706   -5.2009   -2.8639 H   0  0  0  0  0  0  0  0  0  0  0  0
    7.6999   -3.6761   -0.9859 H   0  0  0  0  0  0  0  0  0  0  0  0
    5.6066   -5.5964   -2.1957 H   0  0  0  0  0  0  0  0  0  0  0  0
    5.6284   -4.9790   -0.5304 H   0  0  0  0  0  0  0  0  0  0  0  0
    6.9394   -6.0312   -1.1094 H   0  0  0  0  0  0  0  0  0  0  0  0
  1  2  1  0
  1 19  1  0
  1 20  1  0
  1 21  1  0
  2  3  1  0
  2  4  1  0
  2 22  1  1
  3 23  1  0
  3 24  1  0
  3 25  1  0
  4  5  1  0
  5  6  2  0
  5 18  1  0
  6  7  1  0
  6 26  1  0
  7  8  2  0
  8  9  1  0
  8 27  1  0
  9 10  1  0
  9 18  2  0
 10 11  1  0
 11 12  1  0
 11 16  1  0
 11 28  1  1
 12 13  1  0
 12 29  1  0
 12 30  1  0
 13 14  1  0
 13 31  1  0
 14 15  1  0
 14 32  1  0
 14 33  1  0
 15 16  1  0
 15 34  1  0
 15 35  1  0
 16 17  1  0
 16 36  1  1
 17 37  1  0
 17 38  1  0
 17 39  1  0
M  END

