
     RDKit          3D

 39 41  0  0  0  0  0  0  0  0999 V2000
    1.2019    1.0758   -1.0548 N   0  0  0  0  0  0  0  0  0  0  0  0
    2.3297    0.8247   -0.9724 C   0  0  0  0  0  0  0  0  0  0  0  0
    3.7652    0.5307   -0.8787 C   0  0  1  0  0  0  0  0  0  0  0  0
    3.9822   -0.9960   -0.8706 C   0  0  0  0  0  0  0  0  0  0  0  0
    3.9893   -1.6567    0.1380 O   0  0  0  0  0  0  0  0  0  0  0  0
    4.1333   -1.5436   -2.1309 N   0  0  0  0  0  0  0  0  0  0  0  0
    4.2047   -0.8752   -3.3498 C   0  0  0  0  0  0  0  0  0  0  0  0
    4.2177   -1.7066   -4.7846 S   0  0  0  0  0  0  0  0  0  0  0  0
    4.2720    0.4775   -3.2562 N   0  0  0  0  0  0  0  0  0  0  0  0
    4.5631    1.2056   -2.0302 C   0  0  2  0  0  0  0  0  0  0  0  0
    6.0535    1.3258   -1.7084 C   0  0  0  0  0  0  0  0  0  0  0  0
    6.4716    2.2512   -0.7437 C   0  0  0  0  0  0  0  0  0  0  0  0
    7.8181    2.3969   -0.4009 C   0  0  0  0  0  0  0  0  0  0  0  0
    8.7854    1.6039   -1.0397 C   0  0  0  0  0  0  0  0  0  0  0  0
   10.1158    1.6616   -0.7863 O   0  0  0  0  0  0  0  0  0  0  0  0
   10.6093    2.5695    0.1781 C   0  0  0  0  0  0  0  0  0  0  0  0
   12.1146    2.4625    0.2611 C   0  0  0  0  0  0  0  0  0  0  0  0
   12.8747    1.9014   -0.7724 C   0  0  0  0  0  0  0  0  0  0  0  0
   14.2681    1.8545   -0.6823 C   0  0  0  0  0  0  0  0  0  0  0  0
   14.9217    2.3712    0.4385 C   0  0  0  0  0  0  0  0  0  0  0  0
   16.6542    2.3253    0.5747 Cl  0  0  0  0  0  0  0  0  0  0  0  0
   14.1583    2.9315    1.4709 C   0  0  0  0  0  0  0  0  0  0  0  0
   14.7636    3.4242    2.5525 F   0  0  0  0  0  0  0  0  0  0  0  0
   12.7706    2.9750    1.3887 C   0  0  0  0  0  0  0  0  0  0  0  0
    8.3787    0.6817   -2.0177 C   0  0  0  0  0  0  0  0  0  0  0  0
    7.0328    0.5472   -2.3466 C   0  0  0  0  0  0  0  0  0  0  0  0
    4.1252    0.8920    0.0950 H   0  0  0  0  0  0  0  0  0  0  0  0
    4.1719   -2.5589   -2.1866 H   0  0  0  0  0  0  0  0  0  0  0  0
    4.3623    0.9563   -4.1457 H   0  0  0  0  0  0  0  0  0  0  0  0
    4.1566    2.2209   -2.1551 H   0  0  0  0  0  0  0  0  0  0  0  0
    5.7355    2.8872   -0.2417 H   0  0  0  0  0  0  0  0  0  0  0  0
    8.0970    3.1299    0.3557 H   0  0  0  0  0  0  0  0  0  0  0  0
   10.1622    2.3620    1.1683 H   0  0  0  0  0  0  0  0  0  0  0  0
   10.3237    3.6042   -0.0976 H   0  0  0  0  0  0  0  0  0  0  0  0
   12.3717    1.4917   -1.6483 H   0  0  0  0  0  0  0  0  0  0  0  0
   14.8642    1.4146   -1.4837 H   0  0  0  0  0  0  0  0  0  0  0  0
   12.2202    3.4134    2.2251 H   0  0  0  0  0  0  0  0  0  0  0  0
    9.1404    0.0762   -2.5123 H   0  0  0  0  0  0  0  0  0  0  0  0
    6.7531   -0.1692   -3.1217 H   0  0  0  0  0  0  0  0  0  0  0  0
  1  2  3  0
  2  3  1  0
  3  4  1  0
  3 10  1  0
  3 27  1  1
  4  5  2  0
  4  6  1  0
  6  7  1  0
  6 28  1  0
  7  8  2  0
  7  9  1  0
  9 10  1  0
  9 29  1  0
 10 11  1  0
 10 30  1  6
 11 12  2  0
 11 26  1  0
 12 13  1  0
 12 31  1  0
 13 14  2  0
 13 32  1  0
 14 15  1  0
 14 25  1  0
 15 16  1  0
 16 17  1  0
 16 33  1  0
 16 34  1  0
 17 18  2  0
 17 24  1  0
 18 19  1  0
 18 35  1  0
 19 20  2  0
 19 36  1  0
 20 21  1  0
 20 22  1  0
 22 23  1  0
 22 24  2  0
 24 37  1  0
 25 26  2  0
 25 38  1  0
 26 39  1  0
M  END

