
     RDKit          3D

 51 54  0  0  0  0  0  0  0  0999 V2000
   -0.4295    0.6095   -0.8318 O   0  0  0  0  0  0  0  0  0  0  0  0
    0.7142    0.1810   -0.8250 C   0  0  0  0  0  0  0  0  0  0  0  0
    1.0029   -1.2990   -0.5467 C   0  0  0  0  0  0  0  0  0  0  0  0
    1.3900   -2.1278   -1.7819 C   0  0  0  0  0  0  0  0  0  0  0  0
    2.8497   -2.0090   -2.2081 C   0  0  0  0  0  0  0  0  0  0  0  0
    3.6099   -1.2394   -1.6339 O   0  0  0  0  0  0  0  0  0  0  0  0
    3.3416   -2.8577   -3.3300 C   0  0  0  0  0  0  0  0  0  0  0  0
    4.7002   -2.7643   -3.6930 C   0  0  0  0  0  0  0  0  0  0  0  0
    5.2105   -3.5372   -4.7276 C   0  0  0  0  0  0  0  0  0  0  0  0
    4.3768   -4.4189   -5.4294 C   0  0  0  0  0  0  0  0  0  0  0  0
    3.0074   -4.5023   -5.0923 C   0  0  0  0  0  0  0  0  0  0  0  0
    2.5046   -3.7311   -4.0461 C   0  0  0  0  0  0  0  0  0  0  0  0
    2.1571   -5.3274   -5.7719 O   0  0  0  0  0  0  0  0  0  0  0  0
    2.6516   -5.7725   -7.0267 C   0  0  0  0  0  0  0  0  0  0  0  0
    4.0897   -6.2389   -6.8863 C   0  0  0  0  0  0  0  0  0  0  0  0
    4.9119   -5.1730   -6.4234 O   0  0  0  0  0  0  0  0  0  0  0  0
    1.8336    0.9369   -1.0585 N   0  0  0  0  0  0  0  0  0  0  0  0
    1.9285    2.3047   -1.3691 C   0  0  0  0  0  0  0  0  0  0  0  0
    3.2095    2.8255   -1.6367 C   0  0  0  0  0  0  0  0  0  0  0  0
    3.3544    4.1759   -1.9448 C   0  0  0  0  0  0  0  0  0  0  0  0
    2.2571    5.0394   -1.9977 C   0  0  0  0  0  0  0  0  0  0  0  0
    0.9798    4.5175   -1.7311 C   0  0  0  0  0  0  0  0  0  0  0  0
   -0.1907    5.2970   -1.7571 N   0  0  0  0  0  0  0  0  0  0  0  0
   -0.3346    6.6350   -2.0335 C   0  0  0  0  0  0  0  0  0  0  0  0
    0.5696    7.4061   -2.3150 O   0  0  0  0  0  0  0  0  0  0  0  0
   -1.7366    7.1120   -1.9651 C   0  0  0  0  0  0  0  0  0  0  0  0
   -2.2600    8.3613   -2.1733 C   0  0  0  0  0  0  0  0  0  0  0  0
   -3.6709    8.2423   -1.9728 C   0  0  0  0  0  0  0  0  0  0  0  0
   -3.9008    6.9308   -1.6581 C   0  0  0  0  0  0  0  0  0  0  0  0
   -2.7374    6.2366   -1.6504 O   0  0  0  0  0  0  0  0  0  0  0  0
    0.8165    3.1559   -1.4185 C   0  0  0  0  0  0  0  0  0  0  0  0
    0.0703   -1.6983   -0.1278 H   0  0  0  0  0  0  0  0  0  0  0  0
    1.7926   -1.3935    0.2157 H   0  0  0  0  0  0  0  0  0  0  0  0
    0.7453   -1.8713   -2.6411 H   0  0  0  0  0  0  0  0  0  0  0  0
    1.1908   -3.1946   -1.5817 H   0  0  0  0  0  0  0  0  0  0  0  0
    5.3399   -2.0773   -3.1376 H   0  0  0  0  0  0  0  0  0  0  0  0
    6.2628   -3.4882   -5.0148 H   0  0  0  0  0  0  0  0  0  0  0  0
    1.4415   -3.8319   -3.8250 H   0  0  0  0  0  0  0  0  0  0  0  0
    2.5906   -4.9545   -7.7689 H   0  0  0  0  0  0  0  0  0  0  0  0
    1.9995   -6.5943   -7.3556 H   0  0  0  0  0  0  0  0  0  0  0  0
    4.5020   -6.5617   -7.8531 H   0  0  0  0  0  0  0  0  0  0  0  0
    4.1450   -7.0854   -6.1775 H   0  0  0  0  0  0  0  0  0  0  0  0
    2.7085    0.4113   -1.0699 H   0  0  0  0  0  0  0  0  0  0  0  0
    4.0807    2.1662   -1.6036 H   0  0  0  0  0  0  0  0  0  0  0  0
    4.3519    4.5729   -2.1513 H   0  0  0  0  0  0  0  0  0  0  0  0
    2.3706    6.0931   -2.2383 H   0  0  0  0  0  0  0  0  0  0  0  0
   -1.0479    4.7982   -1.5425 H   0  0  0  0  0  0  0  0  0  0  0  0
   -1.6853    9.2453   -2.4373 H   0  0  0  0  0  0  0  0  0  0  0  0
   -4.4198    9.0276   -2.0514 H   0  0  0  0  0  0  0  0  0  0  0  0
   -4.7988    6.3649   -1.4234 H   0  0  0  0  0  0  0  0  0  0  0  0
   -0.1703    2.7435   -1.2141 H   0  0  0  0  0  0  0  0  0  0  0  0
  1  2  2  0
  2  3  1  0
  2 17  1  0
  3  4  1  0
  3 32  1  0
  3 33  1  0
  4  5  1  0
  4 34  1  0
  4 35  1  0
  5  6  2  0
  5  7  1  0
  7  8  2  0
  7 12  1  0
  8  9  1  0
  8 36  1  0
  9 10  2  0
  9 37  1  0
 10 11  1  0
 10 16  1  0
 11 12  2  0
 11 13  1  0
 12 38  1  0
 13 14  1  0
 14 15  1  0
 14 39  1  0
 14 40  1  0
 15 16  1  0
 15 41  1  0
 15 42  1  0
 17 18  1  0
 17 43  1  0
 18 19  2  0
 18 31  1  0
 19 20  1  0
 19 44  1  0
 20 21  2  0
 20 45  1  0
 21 22  1  0
 21 46  1  0
 22 23  1  0
 22 31  2  0
 23 24  1  0
 23 47  1  0
 24 25  2  0
 24 26  1  0
 26 27  2  0
 26 30  1  0
 27 28  1  0
 27 48  1  0
 28 29  2  0
 28 49  1  0
 29 30  1  0
 29 50  1  0
 31 51  1  0
M  END

