
     RDKit          3D

 51 53  0  0  0  0  0  0  0  0999 V2000
    0.4062   -2.1325    0.4145 C   0  0  0  0  0  0  0  0  0  0  0  0
    1.7747   -1.7980    0.1627 O   0  0  0  0  0  0  0  0  0  0  0  0
    2.3113   -0.8523    0.9369 C   0  0  0  0  0  0  0  0  0  0  0  0
    1.7109   -0.2541    1.7983 O   0  0  0  0  0  0  0  0  0  0  0  0
    3.7918   -0.6484    0.6266 C   0  0  1  0  0  0  0  0  0  0  0  0
    4.1849    0.6415    1.1473 N   0  0  0  0  0  0  0  0  0  0  0  0
    5.2435    1.3236    0.6226 C   0  0  0  0  0  0  0  0  0  0  0  0
    5.9155    0.9151   -0.3067 O   0  0  0  0  0  0  0  0  0  0  0  0
    5.4109    2.4881    1.2796 O   0  0  0  0  0  0  0  0  0  0  0  0
    6.4747    3.4320    0.9266 C   0  0  1  0  0  0  0  0  0  0  0  0
    6.2795    3.9297   -0.5096 C   0  0  0  0  0  0  0  0  0  0  0  0
    6.2650    4.5697    1.9278 C   0  0  0  0  0  0  0  0  0  0  0  0
    7.8451    2.7767    1.1283 C   0  0  0  0  0  0  0  0  0  0  0  0
    4.6189   -1.8126    1.1848 C   0  0  0  0  0  0  0  0  0  0  0  0
    5.6051   -2.4098    0.3678 C   0  0  0  0  0  0  0  0  0  0  0  0
    6.4208   -3.4487    0.8252 C   0  0  0  0  0  0  0  0  0  0  0  0
    6.2052   -3.8559    2.1352 C   0  0  0  0  0  0  0  0  0  0  0  0
    6.8357   -4.8326    2.8506 O   0  0  0  0  0  0  0  0  0  0  0  0
    6.2295   -4.8047    4.0828 C   0  0  0  0  0  0  0  0  0  0  0  0
    6.6958   -5.7538    5.0911 C   0  0  0  0  0  0  0  0  0  0  0  0
    7.7282   -6.6674    4.8121 C   0  0  0  0  0  0  0  0  0  0  0  0
    8.1554   -7.5627    5.7881 C   0  0  0  0  0  0  0  0  0  0  0  0
    7.5554   -7.5581    7.0616 C   0  0  0  0  0  0  0  0  0  0  0  0
    7.9951   -8.4817    8.0695 C   0  0  0  0  0  0  0  0  0  0  0  0
    8.3505   -9.2287    8.8845 N   0  0  0  0  0  0  0  0  0  0  0  0
    6.5209   -6.6425    7.3421 C   0  0  0  0  0  0  0  0  0  0  0  0
    6.0968   -5.7501    6.3651 C   0  0  0  0  0  0  0  0  0  0  0  0
    5.2911   -3.9161    4.2080 N   0  0  0  0  0  0  0  0  0  0  0  0
    5.2381   -3.2781    2.9784 C   0  0  0  0  0  0  0  0  0  0  0  0
    4.4299   -2.2383    2.5049 C   0  0  0  0  0  0  0  0  0  0  0  0
    0.1466   -2.9139   -0.3095 H   0  0  0  0  0  0  0  0  0  0  0  0
   -0.2401   -1.2528    0.2784 H   0  0  0  0  0  0  0  0  0  0  0  0
    0.2812   -2.5057    1.4420 H   0  0  0  0  0  0  0  0  0  0  0  0
    3.9176   -0.6425   -0.4660 H   0  0  0  0  0  0  0  0  0  0  0  0
    3.6357    1.0423    1.9007 H   0  0  0  0  0  0  0  0  0  0  0  0
    5.2719    4.3571   -0.6329 H   0  0  0  0  0  0  0  0  0  0  0  0
    6.4087    3.1128   -1.2308 H   0  0  0  0  0  0  0  0  0  0  0  0
    7.0142    4.7192   -0.7326 H   0  0  0  0  0  0  0  0  0  0  0  0
    5.2626    5.0087    1.8108 H   0  0  0  0  0  0  0  0  0  0  0  0
    7.0137    5.3606    1.7691 H   0  0  0  0  0  0  0  0  0  0  0  0
    6.3606    4.1997    2.9598 H   0  0  0  0  0  0  0  0  0  0  0  0
    7.9913    1.9452    0.4273 H   0  0  0  0  0  0  0  0  0  0  0  0
    7.9389    2.3947    2.1570 H   0  0  0  0  0  0  0  0  0  0  0  0
    8.6405    3.5211    0.9669 H   0  0  0  0  0  0  0  0  0  0  0  0
    5.7440   -2.0282   -0.6456 H   0  0  0  0  0  0  0  0  0  0  0  0
    7.1839   -3.9052    0.1932 H   0  0  0  0  0  0  0  0  0  0  0  0
    8.1931   -6.6707    3.8253 H   0  0  0  0  0  0  0  0  0  0  0  0
    8.9565   -8.2717    5.5718 H   0  0  0  0  0  0  0  0  0  0  0  0
    6.0567   -6.6397    8.3300 H   0  0  0  0  0  0  0  0  0  0  0  0
    5.2975   -5.0356    6.5677 H   0  0  0  0  0  0  0  0  0  0  0  0
    3.6811   -1.7807    3.1551 H   0  0  0  0  0  0  0  0  0  0  0  0
  1  2  1  0
  1 31  1  0
  1 32  1  0
  1 33  1  0
  2  3  1  0
  3  4  2  0
  3  5  1  0
  5  6  1  0
  5 14  1  0
  5 34  1  6
  6  7  1  0
  6 35  1  0
  7  8  2  0
  7  9  1  0
 10  9  1  1
 10 11  1  0
 10 12  1  0
 10 13  1  0
 11 36  1  0
 11 37  1  0
 11 38  1  0
 12 39  1  0
 12 40  1  0
 12 41  1  0
 13 42  1  0
 13 43  1  0
 13 44  1  0
 14 15  2  0
 14 30  1  0
 15 16  1  0
 15 45  1  0
 16 17  2  0
 16 46  1  0
 17 18  1  0
 17 29  1  0
 18 19  1  0
 19 20  1  0
 19 28  2  0
 20 21  2  0
 20 27  1  0
 21 22  1  0
 21 47  1  0
 22 23  2  0
 22 48  1  0
 23 24  1  0
 23 26  1  0
 24 25  3  0
 26 27  2  0
 26 49  1  0
 27 50  1  0
 28 29  1  0
 29 30  2  0
 30 51  1  0
M  END

