
     RDKit          3D

 28 29  0  0  0  0  0  0  0  0999 V2000
    1.8480    0.0151    1.6748 C   0  0  0  0  0  0  0  0  0  0  0  0
    2.9976    0.0539    0.7098 C   0  0  0  0  0  0  0  0  0  0  0  0
    3.5903    1.2544    0.2921 C   0  0  0  0  0  0  0  0  0  0  0  0
    4.6484    1.1456   -0.6211 C   0  0  0  0  0  0  0  0  0  0  0  0
    5.3019    2.3404   -1.1146 C   0  0  0  0  0  0  0  0  0  0  0  0
    5.8028    3.3157   -1.4909 N   0  0  0  0  0  0  0  0  0  0  0  0
    5.0994   -0.0264   -1.0736 N   0  0  0  0  0  0  0  0  0  0  0  0
    4.4700   -1.0961   -0.5986 C   0  0  0  0  0  0  0  0  0  0  0  0
    4.9525   -2.2704   -1.0706 O   0  0  0  0  0  0  0  0  0  0  0  0
    4.4969   -3.4564   -0.5615 C   0  0  0  0  0  0  0  0  0  0  0  0
    5.0497   -4.2831    0.3952 C   0  0  0  0  0  0  0  0  0  0  0  0
    4.1776   -5.4057    0.4150 C   0  0  0  0  0  0  0  0  0  0  0  0
    4.2727   -6.6395    1.2591 C   0  0  0  0  0  0  0  0  0  0  0  0
    3.1881   -5.2594   -0.4655 N   0  0  0  0  0  0  0  0  0  0  0  0
    3.3959   -4.0717   -1.0664 N   0  0  0  0  0  0  0  0  0  0  0  0
    2.4617   -3.5637   -2.0455 C   0  0  0  0  0  0  0  0  0  0  0  0
    3.4480   -1.1199    0.2476 N   0  0  0  0  0  0  0  0  0  0  0  0
    1.5430    1.0200    1.9962 H   0  0  0  0  0  0  0  0  0  0  0  0
    2.1254   -0.5790    2.5599 H   0  0  0  0  0  0  0  0  0  0  0  0
    0.9873   -0.4925    1.2112 H   0  0  0  0  0  0  0  0  0  0  0  0
    3.2466    2.2250    0.6491 H   0  0  0  0  0  0  0  0  0  0  0  0
    5.9500   -4.1026    0.9765 H   0  0  0  0  0  0  0  0  0  0  0  0
    4.2378   -6.3981    2.3344 H   0  0  0  0  0  0  0  0  0  0  0  0
    5.2144   -7.1832    1.0763 H   0  0  0  0  0  0  0  0  0  0  0  0
    3.4343   -7.3108    1.0266 H   0  0  0  0  0  0  0  0  0  0  0  0
    2.0174   -4.4197   -2.5689 H   0  0  0  0  0  0  0  0  0  0  0  0
    2.9918   -2.9278   -2.7683 H   0  0  0  0  0  0  0  0  0  0  0  0
    1.6619   -2.9757   -1.5660 H   0  0  0  0  0  0  0  0  0  0  0  0
  1  2  1  0
  1 18  1  0
  1 19  1  0
  1 20  1  0
  2  3  2  0
  2 17  1  0
  3  4  1  0
  3 21  1  0
  4  5  1  0
  4  7  2  0
  5  6  3  0
  7  8  1  0
  8  9  1  0
  8 17  2  0
  9 10  1  0
 10 11  2  0
 10 15  1  0
 11 12  1  0
 11 22  1  0
 12 13  1  0
 12 14  2  0
 13 23  1  0
 13 24  1  0
 13 25  1  0
 14 15  1  0
 15 16  1  0
 16 26  1  0
 16 27  1  0
 16 28  1  0
M  END

