
     RDKit          3D

 22 22  0  0  0  0  0  0  0  0999 V2000
    3.0811    0.5979    0.3896 C   0  0  0  0  0  0  0  0  0  0  0  0
    4.2069    0.9449    0.1053 C   0  0  0  0  0  0  0  0  0  0  0  0
    5.5705    1.3266   -0.2674 C   0  0  0  0  0  0  0  0  0  0  0  0
    6.0283    0.7089   -1.5979 C   0  0  0  0  0  0  0  0  0  0  0  0
    6.0117   -0.7505   -1.4998 N   0  0  0  0  0  0  0  0  0  0  0  0
    6.5142   -1.6487   -2.8358 S   0  0  1  0  0  0  0  0  0  0  0  0
    5.8827   -2.9597   -2.6580 O   0  0  0  0  0  0  0  0  0  0  0  0
    6.3800   -0.8612   -4.0603 O   0  0  0  0  0  0  0  0  0  0  0  0
    8.2373   -1.8623   -2.5621 C   0  0  0  0  0  0  0  0  0  0  0  0
    9.3451   -1.2131   -3.0729 C   0  0  0  0  0  0  0  0  0  0  0  0
   10.4821   -1.7523   -2.5417 N   0  0  0  0  0  0  0  0  0  0  0  0
   10.0809   -2.7092   -1.7287 C   0  0  0  0  0  0  0  0  0  0  0  0
    8.7254   -2.8168   -1.6981 N   0  0  0  0  0  0  0  0  0  0  0  0
    8.1566   -3.4993   -1.2072 H   0  0  0  0  0  0  0  0  0  0  0  0
    2.0810    0.3052    0.6501 H   0  0  0  0  0  0  0  0  0  0  0  0
    6.2666    1.0251    0.5340 H   0  0  0  0  0  0  0  0  0  0  0  0
    5.6358    2.4248   -0.3511 H   0  0  0  0  0  0  0  0  0  0  0  0
    7.0608    1.0328   -1.8026 H   0  0  0  0  0  0  0  0  0  0  0  0
    5.3965    1.0758   -2.4251 H   0  0  0  0  0  0  0  0  0  0  0  0
    5.1168   -1.1358   -1.1873 H   0  0  0  0  0  0  0  0  0  0  0  0
    9.3575   -0.4020   -3.7989 H   0  0  0  0  0  0  0  0  0  0  0  0
   10.7294   -3.3606   -1.1421 H   0  0  0  0  0  0  0  0  0  0  0  0
  1  2  3  0
  1 15  1  0
  2  3  1  0
  3  4  1  0
  3 16  1  0
  3 17  1  0
  4  5  1  0
  4 18  1  0
  4 19  1  0
  6  5  1  1
  5 20  1  0
  6  7  2  0
  6  8  2  0
  6  9  1  0
  9 10  2  0
  9 13  1  0
 10 11  1  0
 10 21  1  0
 11 12  2  0
 12 13  1  0
 12 22  1  0
 13 14  1  0
M  END

