
     RDKit          3D

 45 47  0  0  0  0  0  0  0  0999 V2000
    1.7854   -0.7074   -2.4623 C   0  0  0  0  0  0  0  0  0  0  0  0
    3.0925   -0.3087   -1.8461 C   0  0  0  0  0  0  0  0  0  0  0  0
    3.7294    0.8963   -1.9990 C   0  0  0  0  0  0  0  0  0  0  0  0
    5.2180    0.9148   -1.1104 S   0  0  0  0  0  0  0  0  0  0  0  0
    4.8822   -0.7186   -0.5811 C   0  0  0  0  0  0  0  0  0  0  0  0
    5.8038   -1.4776    0.3494 C   0  0  1  0  0  0  0  0  0  0  0  0
    5.8442   -0.8647    1.7614 C   0  0  0  0  0  0  0  0  0  0  0  0
    5.3688   -2.8647    0.3640 N   0  0  0  0  0  0  0  0  0  0  0  0
    6.2034   -3.8781    0.7154 C   0  0  0  0  0  0  0  0  0  0  0  0
    7.3544   -3.6894    1.0856 O   0  0  0  0  0  0  0  0  0  0  0  0
    5.5978   -5.2836    0.6620 C   0  0  2  0  0  0  0  0  0  0  0  0
    5.3655   -5.8051    2.0919 C   0  0  0  0  0  0  0  0  0  0  0  0
    4.7092   -7.1849    2.0686 C   0  0  0  0  0  0  0  0  0  0  0  0
    5.3467   -8.1441    1.0909 C   0  0  0  0  0  0  0  0  0  0  0  0
    5.0400   -9.4392    1.2392 N   0  0  0  0  0  0  0  0  0  0  0  0
    5.5672  -10.3180    0.3868 C   0  0  0  0  0  0  0  0  0  0  0  0
    5.2246  -11.7726    0.5515 C   0  0  0  0  0  0  0  0  0  0  0  0
    6.3942   -9.9915   -0.6169 N   0  0  0  0  0  0  0  0  0  0  0  0
    6.6990   -8.7104   -0.7661 C   0  0  0  0  0  0  0  0  0  0  0  0
    7.6368   -8.3902   -1.9304 C   0  0  1  0  0  0  0  0  0  0  0  0
    8.0891   -9.4827   -2.5342 F   0  0  0  0  0  0  0  0  0  0  0  0
    7.0031   -7.6411   -2.8593 F   0  0  0  0  0  0  0  0  0  0  0  0
    8.7019   -7.6806   -1.5109 F   0  0  0  0  0  0  0  0  0  0  0  0
    6.1982   -7.6897    0.0645 C   0  0  0  0  0  0  0  0  0  0  0  0
    6.5479   -6.2255   -0.0933 C   0  0  0  0  0  0  0  0  0  0  0  0
    3.7653   -1.2029   -1.0384 N   0  0  0  0  0  0  0  0  0  0  0  0
    1.3663    0.1029   -3.0749 H   0  0  0  0  0  0  0  0  0  0  0  0
    1.0525   -0.9706   -1.6822 H   0  0  0  0  0  0  0  0  0  0  0  0
    1.9125   -1.5974   -3.1000 H   0  0  0  0  0  0  0  0  0  0  0  0
    3.4101    1.7589   -2.5810 H   0  0  0  0  0  0  0  0  0  0  0  0
    6.8311   -1.4515   -0.0542 H   0  0  0  0  0  0  0  0  0  0  0  0
    4.8420   -0.8777    2.2174 H   0  0  0  0  0  0  0  0  0  0  0  0
    6.2004    0.1767    1.7276 H   0  0  0  0  0  0  0  0  0  0  0  0
    6.5352   -1.4489    2.3852 H   0  0  0  0  0  0  0  0  0  0  0  0
    4.4463   -3.0435   -0.0238 H   0  0  0  0  0  0  0  0  0  0  0  0
    4.6248   -5.2455    0.1402 H   0  0  0  0  0  0  0  0  0  0  0  0
    4.7392   -5.0989    2.6600 H   0  0  0  0  0  0  0  0  0  0  0  0
    6.3409   -5.8465    2.6051 H   0  0  0  0  0  0  0  0  0  0  0  0
    3.6412   -7.0974    1.7946 H   0  0  0  0  0  0  0  0  0  0  0  0
    4.7178   -7.6576    3.0631 H   0  0  0  0  0  0  0  0  0  0  0  0
    4.5320  -11.9096    1.3909 H   0  0  0  0  0  0  0  0  0  0  0  0
    6.1398  -12.3603    0.7282 H   0  0  0  0  0  0  0  0  0  0  0  0
    4.7706  -12.1634   -0.3729 H   0  0  0  0  0  0  0  0  0  0  0  0
    6.5728   -5.9574   -1.1598 H   0  0  0  0  0  0  0  0  0  0  0  0
    7.5684   -6.0468    0.2850 H   0  0  0  0  0  0  0  0  0  0  0  0
  1  2  1  0
  1 27  1  0
  1 28  1  0
  1 29  1  0
  2  3  2  0
  2 26  1  0
  3  4  1  0
  3 30  1  0
  4  5  1  0
  5  6  1  0
  5 26  2  0
  6  7  1  0
  6  8  1  0
  6 31  1  6
  7 32  1  0
  7 33  1  0
  7 34  1  0
  8  9  1  0
  8 35  1  0
  9 10  2  0
  9 11  1  0
 11 12  1  0
 11 25  1  0
 11 36  1  6
 12 13  1  0
 12 37  1  0
 12 38  1  0
 13 14  1  0
 13 39  1  0
 13 40  1  0
 14 15  2  0
 14 24  1  0
 15 16  1  0
 16 17  1  0
 16 18  2  0
 17 41  1  0
 17 42  1  0
 17 43  1  0
 18 19  1  0
 19 20  1  0
 19 24  2  0
 20 21  1  6
 20 22  1  0
 20 23  1  0
 24 25  1  0
 25 44  1  0
 25 45  1  0
M  END

