
     RDKit          3D

 28 30  0  0  0  0  0  0  0  0999 V2000
    1.1292   -0.2693    0.5249 Br  0  0  0  0  0  0  0  0  0  0  0  0
    2.9886   -0.0788    0.1658 C   0  0  0  0  0  0  0  0  0  0  0  0
    3.5521    1.1999    0.0904 C   0  0  0  0  0  0  0  0  0  0  0  0
    4.9131    1.3352   -0.1716 C   0  0  0  0  0  0  0  0  0  0  0  0
    5.7326    0.2047   -0.3622 C   0  0  0  0  0  0  0  0  0  0  0  0
    7.1563    0.3548   -0.6352 C   0  0  0  0  0  0  0  0  0  0  0  0
    7.9845    1.4561   -0.7670 C   0  0  0  0  0  0  0  0  0  0  0  0
    9.2860    0.9619   -1.0334 C   0  0  0  0  0  0  0  0  0  0  0  0
    9.1827   -0.4140   -1.0490 C   0  0  0  0  0  0  0  0  0  0  0  0
   10.1209   -1.4865   -1.2588 C   0  0  0  0  0  0  0  0  0  0  0  0
   11.3616   -1.2409   -1.4948 N   0  0  0  0  0  0  0  0  0  0  0  0
   12.2171   -2.2838   -1.6871 N   0  0  0  0  0  0  0  0  0  0  0  0
   12.0627   -3.6574   -1.6884 C   0  0  0  0  0  0  0  0  0  0  0  0
   13.2102   -4.2337   -1.9263 N   0  0  0  0  0  0  0  0  0  0  0  0
   14.1580   -3.2468   -2.0907 N   0  0  0  0  0  0  0  0  0  0  0  0
   13.5557   -2.0993   -1.9466 C   0  0  0  0  0  0  0  0  0  0  0  0
    7.8893   -0.7755   -0.8075 O   0  0  0  0  0  0  0  0  0  0  0  0
    5.1412   -1.0716   -0.2820 C   0  0  0  0  0  0  0  0  0  0  0  0
    3.7798   -1.2163   -0.0201 C   0  0  0  0  0  0  0  0  0  0  0  0
    2.9282    2.0830    0.2360 H   0  0  0  0  0  0  0  0  0  0  0  0
    5.3419    2.3378   -0.2286 H   0  0  0  0  0  0  0  0  0  0  0  0
    7.6885    2.4987   -0.6821 H   0  0  0  0  0  0  0  0  0  0  0  0
   10.1992    1.5288   -1.1963 H   0  0  0  0  0  0  0  0  0  0  0  0
    9.6971   -2.5004   -1.2013 H   0  0  0  0  0  0  0  0  0  0  0  0
   11.1214   -4.1733   -1.5148 H   0  0  0  0  0  0  0  0  0  0  0  0
   13.9979   -1.1067   -2.0111 H   0  0  0  0  0  0  0  0  0  0  0  0
    5.7588   -1.9589   -0.4276 H   0  0  0  0  0  0  0  0  0  0  0  0
    3.3333   -2.2101    0.0394 H   0  0  0  0  0  0  0  0  0  0  0  0
  1  2  1  0
  2  3  2  0
  2 19  1  0
  3  4  1  0
  3 20  1  0
  4  5  2  0
  4 21  1  0
  5  6  1  0
  5 18  1  0
  6  7  2  0
  6 17  1  0
  7  8  1  0
  7 22  1  0
  8  9  2  0
  8 23  1  0
  9 10  1  0
  9 17  1  0
 10 11  2  0
 10 24  1  0
 11 12  1  0
 12 13  1  0
 12 16  1  0
 13 14  2  0
 13 25  1  0
 14 15  1  0
 15 16  2  0
 16 26  1  0
 18 19  2  0
 18 27  1  0
 19 28  1  0
M  END

