
     RDKit          3D

 38 39  0  0  0  0  0  0  0  0999 V2000
    1.2711   -1.1056   -0.5929 C   0  0  0  0  0  0  0  0  0  0  0  0
    2.4186   -0.3913   -0.0753 N   0  0  0  0  0  0  0  0  0  0  0  0
    3.4965    0.0777   -0.7651 C   0  0  0  0  0  0  0  0  0  0  0  0
    4.3411    0.6863    0.1542 C   0  0  0  0  0  0  0  0  0  0  0  0
    5.6467    1.3871   -0.1000 C   0  0  0  0  0  0  0  0  0  0  0  0
    5.5145    2.9179   -0.2199 C   0  0  0  0  0  0  0  0  0  0  0  0
    6.8418    3.6939   -0.3444 C   0  0  1  0  0  0  0  0  0  0  0  0
    7.5552    3.3992   -1.6831 C   0  0  0  0  0  0  0  0  0  0  0  0
    8.8832    4.0949   -1.8308 C   0  0  0  0  0  0  0  0  0  0  0  0
   10.0654    3.5513   -1.3168 C   0  0  0  0  0  0  0  0  0  0  0  0
    9.9902    2.3599   -0.6929 F   0  0  0  0  0  0  0  0  0  0  0  0
   11.3064    4.1749   -1.4200 C   0  0  0  0  0  0  0  0  0  0  0  0
   11.3794    5.4133   -2.0626 C   0  0  0  0  0  0  0  0  0  0  0  0
   10.2288    6.0050   -2.5902 C   0  0  0  0  0  0  0  0  0  0  0  0
    9.0133    5.3383   -2.4598 C   0  0  0  0  0  0  0  0  0  0  0  0
    7.9104    5.9053   -2.9784 F   0  0  0  0  0  0  0  0  0  0  0  0
    6.6965    5.1420   -0.1999 N   0  0  0  0  0  0  0  0  0  0  0  0
    6.2828    5.6402    1.0491 N   0  0  0  0  0  0  0  0  0  0  0  0
    3.6541    0.5204    1.3862 C   0  0  0  0  0  0  0  0  0  0  0  0
    2.5029   -0.1294    1.2350 N   0  0  0  0  0  0  0  0  0  0  0  0
    1.3854   -1.2362   -1.6773 H   0  0  0  0  0  0  0  0  0  0  0  0
    0.3466   -0.5425   -0.3927 H   0  0  0  0  0  0  0  0  0  0  0  0
    1.1892   -2.0944   -0.1165 H   0  0  0  0  0  0  0  0  0  0  0  0
    3.5888   -0.0575   -1.8416 H   0  0  0  0  0  0  0  0  0  0  0  0
    6.1029    0.9763   -1.0153 H   0  0  0  0  0  0  0  0  0  0  0  0
    6.3503    1.1551    0.7191 H   0  0  0  0  0  0  0  0  0  0  0  0
    4.9789    3.2796    0.6755 H   0  0  0  0  0  0  0  0  0  0  0  0
    4.8678    3.1676   -1.0810 H   0  0  0  0  0  0  0  0  0  0  0  0
    7.5121    3.3675    0.4731 H   0  0  0  0  0  0  0  0  0  0  0  0
    6.8938    3.7056   -2.5098 H   0  0  0  0  0  0  0  0  0  0  0  0
    7.7088    2.3147   -1.7741 H   0  0  0  0  0  0  0  0  0  0  0  0
   12.1863    3.6869   -0.9978 H   0  0  0  0  0  0  0  0  0  0  0  0
   12.3418    5.9219   -2.1535 H   0  0  0  0  0  0  0  0  0  0  0  0
   10.2544    6.9717   -3.0955 H   0  0  0  0  0  0  0  0  0  0  0  0
    6.0990    5.5315   -0.9280 H   0  0  0  0  0  0  0  0  0  0  0  0
    7.0882    5.6692    1.6743 H   0  0  0  0  0  0  0  0  0  0  0  0
    5.5689    5.0537    1.4954 H   0  0  0  0  0  0  0  0  0  0  0  0
    3.9668    0.8462    2.3794 H   0  0  0  0  0  0  0  0  0  0  0  0
  1  2  1  0
  1 21  1  0
  1 22  1  0
  1 23  1  0
  2  3  1  0
  2 20  1  0
  3  4  2  0
  3 24  1  0
  4  5  1  0
  4 19  1  0
  5  6  1  0
  5 25  1  0
  5 26  1  0
  6  7  1  0
  6 27  1  0
  6 28  1  0
  7  8  1  0
  7 17  1  0
  7 29  1  1
  8  9  1  0
  8 30  1  0
  8 31  1  0
  9 10  2  0
  9 15  1  0
 10 11  1  0
 10 12  1  0
 12 13  2  0
 12 32  1  0
 13 14  1  0
 13 33  1  0
 14 15  2  0
 14 34  1  0
 15 16  1  0
 17 18  1  0
 17 35  1  0
 18 36  1  0
 18 37  1  0
 19 20  2  0
 19 38  1  0
M  END

