
     RDKit          3D

 73 77  0  0  0  0  0  0  0  0999 V2000
    1.7307   -0.5299   -0.5033 C   0  0  0  0  0  0  0  0  0  0  0  0
    1.0647    0.3384    0.3883 O   0  0  0  0  0  0  0  0  0  0  0  0
    1.7859    1.0734    1.2653 C   0  0  0  0  0  0  0  0  0  0  0  0
    3.1855    1.0573    1.3576 C   0  0  0  0  0  0  0  0  0  0  0  0
    3.8270    1.8577    2.3098 C   0  0  0  0  0  0  0  0  0  0  0  0
    3.1038    2.6964    3.1669 C   0  0  0  0  0  0  0  0  0  0  0  0
    3.8233    3.5560    4.2086 C   0  0  1  0  0  0  0  0  0  0  0  0
    3.3112    4.9925    4.3208 C   0  0  0  0  0  0  0  0  0  0  0  0
    3.3240    5.8348    3.2220 C   0  0  0  0  0  0  0  0  0  0  0  0
    3.6568    5.3393    2.0161 O   0  0  0  0  0  0  0  0  0  0  0  0
    3.0185    7.2715    3.1592 C   0  0  0  0  0  0  0  0  0  0  0  0
    3.1578    8.1365    4.2532 C   0  0  0  0  0  0  0  0  0  0  0  0
    2.8916    9.4930    4.1031 C   0  0  0  0  0  0  0  0  0  0  0  0
    2.4735   10.0194    2.8700 C   0  0  0  0  0  0  0  0  0  0  0  0
    2.1988   11.3377    2.7110 O   0  0  0  0  0  0  0  0  0  0  0  0
    2.3133   12.2291    3.8015 C   0  0  0  0  0  0  0  0  0  0  0  0
    2.3257    9.1744    1.7310 C   0  0  0  0  0  0  0  0  0  0  0  0
    1.8715    9.7160    0.3561 C   0  0  1  0  0  0  0  0  0  0  0  0
    2.8811   10.7696   -0.1605 C   0  0  0  0  0  0  0  0  0  0  0  0
    1.7956    8.5957   -0.7000 C   0  0  0  0  0  0  0  0  0  0  0  0
    0.4598   10.3405    0.4701 C   0  0  0  0  0  0  0  0  0  0  0  0
    2.6149    7.8235    1.9209 C   0  0  0  0  0  0  0  0  0  0  0  0
    2.7665    5.2076    5.6556 C   0  0  0  0  0  0  0  0  0  0  0  0
    2.2373    6.1674    6.1841 O   0  0  0  0  0  0  0  0  0  0  0  0
    2.9872    3.8944    6.4275 C   0  0  0  0  0  0  0  0  0  0  0  0
    2.6838    3.6697    7.5835 O   0  0  0  0  0  0  0  0  0  0  0  0
    3.6525    3.0358    5.5771 N   0  0  0  0  0  0  0  0  0  0  0  0
    4.2217    1.8314    5.9679 C   0  0  0  0  0  0  0  0  0  0  0  0
    5.0300    1.1146    5.2251 N   0  0  0  0  0  0  0  0  0  0  0  0
    5.3647    0.0356    6.0270 C   0  0  0  0  0  0  0  0  0  0  0  0
    6.1982   -1.0624    5.7720 C   0  0  0  0  0  0  0  0  0  0  0  0
    6.3867   -2.0318    6.7605 C   0  0  0  0  0  0  0  0  0  0  0  0
    7.2853   -3.2157    6.4896 C   0  0  0  0  0  0  0  0  0  0  0  0
    5.7344   -1.9084    8.0261 C   0  0  0  0  0  0  0  0  0  0  0  0
    5.9432   -2.9599    9.0896 C   0  0  0  0  0  0  0  0  0  0  0  0
    4.9000   -0.8159    8.2879 C   0  0  0  0  0  0  0  0  0  0  0  0
    4.7244    0.1414    7.2868 C   0  0  0  0  0  0  0  0  0  0  0  0
    3.9868    1.3101    7.2145 N   0  0  0  0  0  0  0  0  0  0  0  0
    3.4242    1.7914    7.9131 H   0  0  0  0  0  0  0  0  0  0  0  0
    1.6982    2.7015    3.0615 C   0  0  0  0  0  0  0  0  0  0  0  0
    1.0469    1.9044    2.1307 C   0  0  0  0  0  0  0  0  0  0  0  0
    0.9517   -1.0167   -1.1048 H   0  0  0  0  0  0  0  0  0  0  0  0
    2.3065   -1.3051    0.0330 H   0  0  0  0  0  0  0  0  0  0  0  0
    2.4128    0.0188   -1.1772 H   0  0  0  0  0  0  0  0  0  0  0  0
    3.7855    0.4184    0.7098 H   0  0  0  0  0  0  0  0  0  0  0  0
    4.9136    1.8059    2.4059 H   0  0  0  0  0  0  0  0  0  0  0  0
    4.9013    3.5357    3.9748 H   0  0  0  0  0  0  0  0  0  0  0  0
    3.6155    4.3642    2.0183 H   0  0  0  0  0  0  0  0  0  0  0  0
    3.4668    7.7618    5.2251 H   0  0  0  0  0  0  0  0  0  0  0  0
    3.0108   10.1457    4.9667 H   0  0  0  0  0  0  0  0  0  0  0  0
    2.0303   13.2193    3.4206 H   0  0  0  0  0  0  0  0  0  0  0  0
    3.3471   12.2743    4.1859 H   0  0  0  0  0  0  0  0  0  0  0  0
    1.6348   11.9537    4.6274 H   0  0  0  0  0  0  0  0  0  0  0  0
    3.8827   10.3248   -0.2770 H   0  0  0  0  0  0  0  0  0  0  0  0
    2.9622   11.6261    0.5202 H   0  0  0  0  0  0  0  0  0  0  0  0
    2.5631   11.1444   -1.1475 H   0  0  0  0  0  0  0  0  0  0  0  0
    2.7718    8.1149   -0.8682 H   0  0  0  0  0  0  0  0  0  0  0  0
    1.4703    9.0247   -1.6605 H   0  0  0  0  0  0  0  0  0  0  0  0
    1.0694    7.8144   -0.4266 H   0  0  0  0  0  0  0  0  0  0  0  0
    0.4397   11.1793    1.1770 H   0  0  0  0  0  0  0  0  0  0  0  0
   -0.2727    9.5887    0.8057 H   0  0  0  0  0  0  0  0  0  0  0  0
    0.1319   10.7133   -0.5144 H   0  0  0  0  0  0  0  0  0  0  0  0
    2.5272    7.1397    1.0815 H   0  0  0  0  0  0  0  0  0  0  0  0
    6.6958   -1.1508    4.8033 H   0  0  0  0  0  0  0  0  0  0  0  0
    7.7109   -3.1678    5.4766 H   0  0  0  0  0  0  0  0  0  0  0  0
    6.7432   -4.1729    6.5792 H   0  0  0  0  0  0  0  0  0  0  0  0
    8.1262   -3.2658    7.2027 H   0  0  0  0  0  0  0  0  0  0  0  0
    5.6234   -3.9590    8.7467 H   0  0  0  0  0  0  0  0  0  0  0  0
    5.3767   -2.7240   10.0023 H   0  0  0  0  0  0  0  0  0  0  0  0
    7.0062   -3.0531    9.3709 H   0  0  0  0  0  0  0  0  0  0  0  0
    4.4009   -0.7212    9.2555 H   0  0  0  0  0  0  0  0  0  0  0  0
    1.1066    3.3458    3.7173 H   0  0  0  0  0  0  0  0  0  0  0  0
   -0.0413    1.9044    2.0444 H   0  0  0  0  0  0  0  0  0  0  0  0
  1  2  1  0
  1 42  1  0
  1 43  1  0
  1 44  1  0
  2  3  1  0
  3  4  2  0
  3 41  1  0
  4  5  1  0
  4 45  1  0
  5  6  2  0
  5 46  1  0
  6  7  1  0
  6 40  1  0
  7  8  1  0
  7 27  1  0
  7 47  1  6
  8  9  2  0
  8 23  1  0
  9 10  1  0
  9 11  1  0
 10 48  1  0
 11 12  2  0
 11 22  1  0
 12 13  1  0
 12 49  1  0
 13 14  2  0
 13 50  1  0
 14 15  1  0
 14 17  1  0
 15 16  1  0
 16 51  1  0
 16 52  1  0
 16 53  1  0
 17 18  1  0
 17 22  2  0
 18 19  1  6
 18 20  1  0
 18 21  1  0
 19 54  1  0
 19 55  1  0
 19 56  1  0
 20 57  1  0
 20 58  1  0
 20 59  1  0
 21 60  1  0
 21 61  1  0
 21 62  1  0
 22 63  1  0
 23 24  2  0
 23 25  1  0
 25 26  2  0
 25 27  1  0
 27 28  1  0
 28 29  2  0
 28 38  1  0
 29 30  1  0
 30 31  2  0
 30 37  1  0
 31 32  1  0
 31 64  1  0
 32 33  1  0
 32 34  2  0
 33 65  1  0
 33 66  1  0
 33 67  1  0
 34 35  1  0
 34 36  1  0
 35 68  1  0
 35 69  1  0
 35 70  1  0
 36 37  2  0
 36 71  1  0
 37 38  1  0
 38 39  1  0
 40 41  2  0
 40 72  1  0
 41 73  1  0
M  END

