
     RDKit          3D

 54 57  0  0  0  0  0  0  0  0999 V2000
    1.0855   -0.8188    0.7219 C   0  0  0  0  0  0  0  0  0  0  0  0
    2.4252   -0.4507    0.2844 N   0  0  0  0  0  0  0  0  0  0  0  0
    3.0872   -1.3054   -0.7049 C   0  0  0  0  0  0  0  0  0  0  0  0
    2.1570   -1.8913   -1.7525 C   0  0  0  0  0  0  0  0  0  0  0  0
    2.1304   -3.2856   -1.9108 C   0  0  0  0  0  0  0  0  0  0  0  0
    1.2981   -3.9204   -2.8342 C   0  0  0  0  0  0  0  0  0  0  0  0
    0.4529   -3.1474   -3.6314 C   0  0  0  0  0  0  0  0  0  0  0  0
    0.4746   -1.7590   -3.5097 C   0  0  0  0  0  0  0  0  0  0  0  0
    1.3189   -1.1150   -2.5893 C   0  0  0  0  0  0  0  0  0  0  0  0
    1.2316    0.2936   -2.4946 N   0  0  0  0  0  0  0  0  0  0  0  0
    2.3224    1.1568   -2.6470 C   0  0  0  0  0  0  0  0  0  0  0  0
    3.4486    0.7390   -2.8746 O   0  0  0  0  0  0  0  0  0  0  0  0
    2.0224    2.4965   -2.5280 N   0  0  0  0  0  0  0  0  0  0  0  0
    3.0026    3.4791   -2.9916 C   0  0  0  0  0  0  0  0  0  0  0  0
    3.2119    4.5917   -1.9645 C   0  0  0  0  0  0  0  0  0  0  0  0
    1.9273    5.1469   -1.5913 N   0  0  0  0  0  0  0  0  0  0  0  0
    1.9186    6.2613   -0.6573 C   0  0  0  0  0  0  0  0  0  0  0  0
    0.4342    6.3756   -0.2414 C   0  0  0  0  0  0  0  0  0  0  0  0
   -0.1790    4.9873   -0.5803 C   0  0  0  0  0  0  0  0  0  0  0  0
    1.0282    4.1481   -1.0224 C   0  0  1  0  0  0  0  0  0  0  0  0
    0.7574    3.0469   -2.0478 C   0  0  0  0  0  0  0  0  0  0  0  0
    2.9585    0.7019    0.8134 C   0  0  0  0  0  0  0  0  0  0  0  0
    2.2523    1.5157    1.4092 O   0  0  0  0  0  0  0  0  0  0  0  0
    4.4259    0.9565    0.7346 C   0  0  0  0  0  0  0  0  0  0  0  0
    5.5361    0.1601    0.5209 C   0  0  0  0  0  0  0  0  0  0  0  0
    6.7664    0.8564    0.6849 C   0  0  0  0  0  0  0  0  0  0  0  0
    6.5801    2.1746    1.0268 C   0  0  0  0  0  0  0  0  0  0  0  0
    4.9125    2.5745    1.1777 S   0  0  0  0  0  0  0  0  0  0  0  0
    1.0285   -1.9098    0.8599 H   0  0  0  0  0  0  0  0  0  0  0  0
    0.3126   -0.5243   -0.0074 H   0  0  0  0  0  0  0  0  0  0  0  0
    0.8701   -0.3111    1.6691 H   0  0  0  0  0  0  0  0  0  0  0  0
    3.5911   -2.1520   -0.2025 H   0  0  0  0  0  0  0  0  0  0  0  0
    3.8457   -0.7052   -1.2226 H   0  0  0  0  0  0  0  0  0  0  0  0
    2.7776   -3.8917   -1.2703 H   0  0  0  0  0  0  0  0  0  0  0  0
    1.3044   -5.0093   -2.9208 H   0  0  0  0  0  0  0  0  0  0  0  0
   -0.2134   -3.6190   -4.3579 H   0  0  0  0  0  0  0  0  0  0  0  0
   -0.1658   -1.1468   -4.1514 H   0  0  0  0  0  0  0  0  0  0  0  0
    0.3296    0.6710   -2.7593 H   0  0  0  0  0  0  0  0  0  0  0  0
    2.6407    3.9308   -3.9352 H   0  0  0  0  0  0  0  0  0  0  0  0
    3.9385    2.9447   -3.1920 H   0  0  0  0  0  0  0  0  0  0  0  0
    3.8401    5.3799   -2.4127 H   0  0  0  0  0  0  0  0  0  0  0  0
    3.7590    4.1865   -1.0840 H   0  0  0  0  0  0  0  0  0  0  0  0
    2.3111    7.1766   -1.1309 H   0  0  0  0  0  0  0  0  0  0  0  0
    2.5528    6.0521    0.2343 H   0  0  0  0  0  0  0  0  0  0  0  0
   -0.0721    7.1729   -0.8052 H   0  0  0  0  0  0  0  0  0  0  0  0
    0.3396    6.6221    0.8264 H   0  0  0  0  0  0  0  0  0  0  0  0
   -0.9005    5.0767   -1.4085 H   0  0  0  0  0  0  0  0  0  0  0  0
   -0.7035    4.5314    0.2724 H   0  0  0  0  0  0  0  0  0  0  0  0
    1.4884    3.6595   -0.1330 H   0  0  0  0  0  0  0  0  0  0  0  0
    0.1726    3.4701   -2.8891 H   0  0  0  0  0  0  0  0  0  0  0  0
    0.1678    2.2567   -1.5658 H   0  0  0  0  0  0  0  0  0  0  0  0
    5.4904   -0.8982    0.2733 H   0  0  0  0  0  0  0  0  0  0  0  0
    7.7471    0.3960    0.5551 H   0  0  0  0  0  0  0  0  0  0  0  0
    7.3436    2.9311    1.2059 H   0  0  0  0  0  0  0  0  0  0  0  0
  1  2  1  0
  1 29  1  0
  1 30  1  0
  1 31  1  0
  2  3  1  0
  2 22  1  0
  3  4  1  0
  3 32  1  0
  3 33  1  0
  4  5  2  0
  4  9  1  0
  5  6  1  0
  5 34  1  0
  6  7  2  0
  6 35  1  0
  7  8  1  0
  7 36  1  0
  8  9  2  0
  8 37  1  0
  9 10  1  0
 10 11  1  0
 10 38  1  0
 11 12  2  0
 11 13  1  0
 13 14  1  0
 13 21  1  0
 14 15  1  0
 14 39  1  0
 14 40  1  0
 15 16  1  0
 15 41  1  0
 15 42  1  0
 16 17  1  0
 16 20  1  0
 17 18  1  0
 17 43  1  0
 17 44  1  0
 18 19  1  0
 18 45  1  0
 18 46  1  0
 19 20  1  0
 19 47  1  0
 19 48  1  0
 20 21  1  0
 20 49  1  1
 21 50  1  0
 21 51  1  0
 22 23  2  0
 22 24  1  0
 24 25  2  0
 24 28  1  0
 25 26  1  0
 25 52  1  0
 26 27  2  0
 26 53  1  0
 27 28  1  0
 27 54  1  0
M  END

