
     RDKit          3D

 37 38  0  0  0  0  0  0  0  0999 V2000
    0.7809    0.9258    0.2994 C   0  0  0  0  0  0  0  0  0  0  0  0
    2.2380    0.5263    0.4378 C   0  0  0  0  0  0  0  0  0  0  0  0
    3.0105    1.7062    0.5463 O   0  0  0  0  0  0  0  0  0  0  0  0
    4.3636    1.6099    0.6874 C   0  0  0  0  0  0  0  0  0  0  0  0
    5.0693    2.8211    0.7952 C   0  0  0  0  0  0  0  0  0  0  0  0
    6.4497    2.8293    0.9397 C   0  0  0  0  0  0  0  0  0  0  0  0
    7.1951    1.6284    0.9888 C   0  0  0  0  0  0  0  0  0  0  0  0
    8.5744    1.6882    1.1952 N   0  0  0  0  0  0  0  0  0  0  0  0
    9.4903    0.5944    0.8948 C   0  0  1  0  0  0  0  0  0  0  0  0
    9.6327    0.3273   -0.6112 C   0  0  0  0  0  0  0  0  0  0  0  0
   10.8136    0.8448    1.6223 C   0  0  0  0  0  0  0  0  0  0  0  0
   10.7882    1.2309    2.9745 C   0  0  0  0  0  0  0  0  0  0  0  0
   11.9632    1.4447    3.6937 C   0  0  0  0  0  0  0  0  0  0  0  0
   13.1971    1.2748    3.0570 C   0  0  0  0  0  0  0  0  0  0  0  0
   14.6785    1.5432    3.9489 Cl  0  0  0  0  0  0  0  0  0  0  0  0
   13.2533    0.8948    1.7162 C   0  0  0  0  0  0  0  0  0  0  0  0
   12.0641    0.6832    1.0099 C   0  0  0  0  0  0  0  0  0  0  0  0
    6.4811    0.4239    0.8711 C   0  0  0  0  0  0  0  0  0  0  0  0
    5.0860    0.4124    0.7266 C   0  0  0  0  0  0  0  0  0  0  0  0
    0.1449    0.0312    0.2122 H   0  0  0  0  0  0  0  0  0  0  0  0
    0.6326    1.5484   -0.5962 H   0  0  0  0  0  0  0  0  0  0  0  0
    0.4521    1.5038    1.1768 H   0  0  0  0  0  0  0  0  0  0  0  0
    2.5649   -0.0655   -0.4397 H   0  0  0  0  0  0  0  0  0  0  0  0
    2.3846   -0.1101    1.3325 H   0  0  0  0  0  0  0  0  0  0  0  0
    4.5052    3.7556    0.7607 H   0  0  0  0  0  0  0  0  0  0  0  0
    6.9732    3.7865    1.0254 H   0  0  0  0  0  0  0  0  0  0  0  0
    8.9769    2.6084    1.0514 H   0  0  0  0  0  0  0  0  0  0  0  0
    9.0588   -0.3137    1.3538 H   0  0  0  0  0  0  0  0  0  0  0  0
   10.1147    1.1768   -1.1216 H   0  0  0  0  0  0  0  0  0  0  0  0
    8.6389    0.1839   -1.0597 H   0  0  0  0  0  0  0  0  0  0  0  0
   10.2247   -0.5790   -0.8134 H   0  0  0  0  0  0  0  0  0  0  0  0
    9.8232    1.3734    3.4659 H   0  0  0  0  0  0  0  0  0  0  0  0
   11.9302    1.7420    4.7434 H   0  0  0  0  0  0  0  0  0  0  0  0
   14.2205    0.7676    1.2271 H   0  0  0  0  0  0  0  0  0  0  0  0
   12.1330    0.3869   -0.0375 H   0  0  0  0  0  0  0  0  0  0  0  0
    7.0032   -0.5337    0.8962 H   0  0  0  0  0  0  0  0  0  0  0  0
    4.5815   -0.5504    0.6414 H   0  0  0  0  0  0  0  0  0  0  0  0
  1  2  1  0
  1 20  1  0
  1 21  1  0
  1 22  1  0
  2  3  1  0
  2 23  1  0
  2 24  1  0
  3  4  1  0
  4  5  2  0
  4 19  1  0
  5  6  1  0
  5 25  1  0
  6  7  2  0
  6 26  1  0
  7  8  1  0
  7 18  1  0
  8  9  1  0
  8 27  1  0
  9 10  1  0
  9 11  1  0
  9 28  1  1
 10 29  1  0
 10 30  1  0
 10 31  1  0
 11 12  2  0
 11 17  1  0
 12 13  1  0
 12 32  1  0
 13 14  2  0
 13 33  1  0
 14 15  1  0
 14 16  1  0
 16 17  2  0
 16 34  1  0
 17 35  1  0
 18 19  2  0
 18 36  1  0
 19 37  1  0
M  END

