
     RDKit          3D

 36 36  0  0  0  0  0  0  0  0999 V2000
    3.0296   -2.0600    1.9308 C   0  0  0  0  0  0  0  0  0  0  0  0
    3.5297   -1.0167    0.9680 C   0  0  0  0  0  0  0  0  0  0  0  0
    4.2310    0.0997    1.4534 C   0  0  0  0  0  0  0  0  0  0  0  0
    4.7244    1.0931    0.6111 C   0  0  0  0  0  0  0  0  0  0  0  0
    4.5315    0.9940   -0.7768 C   0  0  0  0  0  0  0  0  0  0  0  0
    5.0391    2.0077   -1.6589 C   0  0  0  0  0  0  0  0  0  0  0  0
    5.4477    2.8325   -2.3662 N   0  0  0  0  0  0  0  0  0  0  0  0
    3.8369   -0.1125   -1.2935 C   0  0  0  0  0  0  0  0  0  0  0  0
    3.3378   -1.0896   -0.4309 C   0  0  0  0  0  0  0  0  0  0  0  0
    2.5035   -2.4911   -1.2338 S   0  0  1  0  0  0  0  0  0  0  0  0
    2.5902   -2.2320   -2.6708 O   0  0  0  0  0  0  0  0  0  0  0  0
    3.0171   -3.7367   -0.6595 O   0  0  0  0  0  0  0  0  0  0  0  0
    0.8897   -2.3660   -0.7423 N   0  0  0  0  0  0  0  0  0  0  0  0
    0.1388   -1.2566   -1.2921 C   0  0  0  0  0  0  0  0  0  0  0  0
   -0.7807   -1.5426   -2.4849 C   0  0  1  0  0  0  0  0  0  0  0  0
   -1.9236   -2.1578   -2.1029 F   0  0  0  0  0  0  0  0  0  0  0  0
   -1.1383   -0.3738   -3.0446 F   0  0  0  0  0  0  0  0  0  0  0  0
   -0.2124   -2.3016   -3.4185 F   0  0  0  0  0  0  0  0  0  0  0  0
    0.2609   -3.5188   -0.0349 C   0  0  1  0  0  0  0  0  0  0  0  0
   -0.8683   -3.0427    0.8821 C   0  0  0  0  0  0  0  0  0  0  0  0
   -0.1805   -4.6408   -0.9828 C   0  0  0  0  0  0  0  0  0  0  0  0
    3.3575   -1.8326    2.9543 H   0  0  0  0  0  0  0  0  0  0  0  0
    3.3909   -3.0591    1.6486 H   0  0  0  0  0  0  0  0  0  0  0  0
    1.9290   -2.1030    1.9281 H   0  0  0  0  0  0  0  0  0  0  0  0
    4.3972    0.1848    2.5300 H   0  0  0  0  0  0  0  0  0  0  0  0
    5.2651    1.9468    1.0240 H   0  0  0  0  0  0  0  0  0  0  0  0
    3.6888   -0.2240   -2.3682 H   0  0  0  0  0  0  0  0  0  0  0  0
    0.8401   -0.4849   -1.6387 H   0  0  0  0  0  0  0  0  0  0  0  0
   -0.4895   -0.7855   -0.5198 H   0  0  0  0  0  0  0  0  0  0  0  0
    1.0590   -3.9278    0.5990 H   0  0  0  0  0  0  0  0  0  0  0  0
   -1.7333   -2.6689    0.3150 H   0  0  0  0  0  0  0  0  0  0  0  0
   -0.5296   -2.2511    1.5694 H   0  0  0  0  0  0  0  0  0  0  0  0
   -1.2170   -3.8901    1.4915 H   0  0  0  0  0  0  0  0  0  0  0  0
   -1.0115   -4.3324   -1.6320 H   0  0  0  0  0  0  0  0  0  0  0  0
   -0.5149   -5.5105   -0.3944 H   0  0  0  0  0  0  0  0  0  0  0  0
    0.6609   -4.9646   -1.6116 H   0  0  0  0  0  0  0  0  0  0  0  0
  1  2  1  0
  1 22  1  0
  1 23  1  0
  1 24  1  0
  2  3  2  0
  2  9  1  0
  3  4  1  0
  3 25  1  0
  4  5  2  0
  4 26  1  0
  5  6  1  0
  5  8  1  0
  6  7  3  0
  8  9  2  0
  8 27  1  0
  9 10  1  0
 10 11  2  0
 10 12  2  0
 10 13  1  1
 13 14  1  0
 13 19  1  0
 14 15  1  0
 14 28  1  0
 14 29  1  0
 15 16  1  1
 15 17  1  0
 15 18  1  0
 19 20  1  0
 19 21  1  0
 19 30  1  1
 20 31  1  0
 20 32  1  0
 20 33  1  0
 21 34  1  0
 21 35  1  0
 21 36  1  0
M  END

