
     RDKit          3D

 30 31  0  0  0  0  0  0  0  0999 V2000
    1.9311    0.5776    1.0793 C   0  0  0  0  0  0  0  0  0  0  0  0
    2.6587   -0.0637   -0.0863 C   0  0  0  0  0  0  0  0  0  0  0  0
    2.8487   -1.2630   -0.1245 O   0  0  0  0  0  0  0  0  0  0  0  0
    3.1476    0.8207   -1.2058 C   0  0  0  0  0  0  0  0  0  0  0  0
    2.9661    2.2122   -1.2246 C   0  0  0  0  0  0  0  0  0  0  0  0
    3.4554    2.9602   -2.2910 C   0  0  0  0  0  0  0  0  0  0  0  0
    4.1377    2.3562   -3.3600 C   0  0  0  0  0  0  0  0  0  0  0  0
    4.6786    3.3302   -4.3906 C   0  0  0  0  0  0  0  0  0  0  0  0
    4.2531    4.4532   -4.4838 O   0  0  0  0  0  0  0  0  0  0  0  0
    5.6988    2.9300   -5.1683 O   0  0  0  0  0  0  0  0  0  0  0  0
    4.2976    0.9460   -3.3713 C   0  0  0  0  0  0  0  0  0  0  0  0
    4.9304    0.1821   -4.4919 C   0  0  0  0  0  0  0  0  0  0  0  0
    6.0285   -0.6644   -4.2454 C   0  0  0  0  0  0  0  0  0  0  0  0
    6.5914   -1.4222   -5.2757 C   0  0  0  0  0  0  0  0  0  0  0  0
    6.0624   -1.3536   -6.5678 C   0  0  0  0  0  0  0  0  0  0  0  0
    4.9679   -0.5221   -6.8255 C   0  0  0  0  0  0  0  0  0  0  0  0
    4.4063    0.2393   -5.7986 C   0  0  0  0  0  0  0  0  0  0  0  0
    3.8058    0.2118   -2.2826 C   0  0  0  0  0  0  0  0  0  0  0  0
    1.6483   -0.2058    1.7935 H   0  0  0  0  0  0  0  0  0  0  0  0
    1.0264    1.1062    0.7376 H   0  0  0  0  0  0  0  0  0  0  0  0
    2.5713    1.3195    1.5839 H   0  0  0  0  0  0  0  0  0  0  0  0
    2.4495    2.7219   -0.4095 H   0  0  0  0  0  0  0  0  0  0  0  0
    3.3326    4.0440   -2.3184 H   0  0  0  0  0  0  0  0  0  0  0  0
    5.9149    1.9954   -5.0198 H   0  0  0  0  0  0  0  0  0  0  0  0
    6.4457   -0.7208   -3.2369 H   0  0  0  0  0  0  0  0  0  0  0  0
    7.4471   -2.0688   -5.0663 H   0  0  0  0  0  0  0  0  0  0  0  0
    6.5017   -1.9475   -7.3731 H   0  0  0  0  0  0  0  0  0  0  0  0
    4.5445   -0.4682   -7.8314 H   0  0  0  0  0  0  0  0  0  0  0  0
    3.5443    0.8782   -6.0055 H   0  0  0  0  0  0  0  0  0  0  0  0
    3.9097   -0.8747   -2.2639 H   0  0  0  0  0  0  0  0  0  0  0  0
  1  2  1  0
  1 19  1  0
  1 20  1  0
  1 21  1  0
  2  3  2  0
  2  4  1  0
  4  5  2  0
  4 18  1  0
  5  6  1  0
  5 22  1  0
  6  7  2  0
  6 23  1  0
  7  8  1  0
  7 11  1  0
  8  9  2  0
  8 10  1  0
 10 24  1  0
 11 12  1  0
 11 18  2  0
 12 13  2  0
 12 17  1  0
 13 14  1  0
 13 25  1  0
 14 15  2  0
 14 26  1  0
 15 16  1  0
 15 27  1  0
 16 17  2  0
 16 28  1  0
 17 29  1  0
 18 30  1  0
M  END

