
     RDKit          3D

 32 32  0  0  0  0  0  0  0  0999 V2000
    1.1729   -0.3518   -0.3403 C   0  0  0  0  0  0  0  0  0  0  0  0
    2.5877   -0.2247   -0.0197 N   0  0  0  0  0  0  0  0  0  0  0  0
    2.9592    0.9643    0.7565 C   0  0  1  0  0  0  0  0  0  0  0  0
    2.4273    0.8301    2.2000 C   0  0  0  0  0  0  0  0  0  0  0  0
    2.8103    1.9491    3.1774 C   0  0  0  0  0  0  0  0  0  0  0  0
    2.3991    3.3751    2.7960 C   0  0  0  0  0  0  0  0  0  0  0  0
    0.5957    3.5244    2.5635 S   0  0  1  0  0  0  0  0  0  0  0  0
    0.2864    5.3039    2.6288 C   0  0  0  0  0  0  0  0  0  0  0  0
    0.2544    3.0793    1.2009 O   0  0  0  0  0  0  0  0  0  0  0  0
   -0.0628    2.9174    3.7307 O   0  0  0  0  0  0  0  0  0  0  0  0
    4.4575    1.1192    0.7132 C   0  0  0  0  0  0  0  0  0  0  0  0
    5.4460    0.1461    1.1081 C   0  0  0  0  0  0  0  0  0  0  0  0
    6.6614    0.7252    0.8872 C   0  0  0  0  0  0  0  0  0  0  0  0
    6.5076    1.9769    0.3857 O   0  0  0  0  0  0  0  0  0  0  0  0
    5.1727    2.2034    0.2814 C   0  0  0  0  0  0  0  0  0  0  0  0
    1.0382   -1.1811   -1.0521 H   0  0  0  0  0  0  0  0  0  0  0  0
    0.7200    0.5629   -0.7793 H   0  0  0  0  0  0  0  0  0  0  0  0
    0.5854   -0.6014    0.5571 H   0  0  0  0  0  0  0  0  0  0  0  0
    3.1293   -0.2232   -0.8820 H   0  0  0  0  0  0  0  0  0  0  0  0
    2.5077    1.8819    0.3203 H   0  0  0  0  0  0  0  0  0  0  0  0
    2.7946   -0.1264    2.6074 H   0  0  0  0  0  0  0  0  0  0  0  0
    1.3306    0.7506    2.1627 H   0  0  0  0  0  0  0  0  0  0  0  0
    3.9039    1.9661    3.3211 H   0  0  0  0  0  0  0  0  0  0  0  0
    2.3654    1.7219    4.1589 H   0  0  0  0  0  0  0  0  0  0  0  0
    2.8544    3.7227    1.8573 H   0  0  0  0  0  0  0  0  0  0  0  0
    2.6603    4.0792    3.6014 H   0  0  0  0  0  0  0  0  0  0  0  0
    0.8523    5.8045    1.8319 H   0  0  0  0  0  0  0  0  0  0  0  0
    0.5478    5.6882    3.6233 H   0  0  0  0  0  0  0  0  0  0  0  0
   -0.7928    5.4054    2.4494 H   0  0  0  0  0  0  0  0  0  0  0  0
    5.2579   -0.8549    1.4895 H   0  0  0  0  0  0  0  0  0  0  0  0
    7.6858    0.3879    1.0252 H   0  0  0  0  0  0  0  0  0  0  0  0
    4.8802    3.1683   -0.1264 H   0  0  0  0  0  0  0  0  0  0  0  0
  1  2  1  0
  1 16  1  0
  1 17  1  0
  1 18  1  0
  2  3  1  0
  2 19  1  0
  3  4  1  0
  3 11  1  0
  3 20  1  6
  4  5  1  0
  4 21  1  0
  4 22  1  0
  5  6  1  0
  5 23  1  0
  5 24  1  0
  7  6  1  1
  6 25  1  0
  6 26  1  0
  7  8  1  0
  7  9  2  0
  7 10  2  0
  8 27  1  0
  8 28  1  0
  8 29  1  0
 11 12  1  0
 11 15  2  0
 12 13  2  0
 12 30  1  0
 13 14  1  0
 13 31  1  0
 14 15  1  0
 15 32  1  0
M  END

