
     RDKit          3D

 83 86  0  0  0  0  0  0  0  0999 V2000
    3.8267    1.9407    5.0855 C   0  0  0  0  0  0  0  0  0  0  0  0
    4.2221    0.7244    4.4817 O   0  0  0  0  0  0  0  0  0  0  0  0
    3.2419    0.0961    3.6680 C   0  0  2  0  0  0  0  0  0  0  0  0
    2.6839    0.8677    3.1011 H   0  0  0  0  0  0  0  0  0  0  0  0
    2.2708   -0.7181    4.5270 C   0  0  0  0  0  0  0  0  0  0  0  0
    4.0064   -0.7574    2.6408 C   0  0  1  0  0  0  0  0  0  0  0  0
    4.7171   -1.3919    3.2040 H   0  0  0  0  0  0  0  0  0  0  0  0
    3.1114   -1.6362    1.7758 C   0  0  0  0  0  0  0  0  0  0  0  0
    4.7382    0.0833    1.7342 O   0  0  0  0  0  0  0  0  0  0  0  0
    6.0173    0.5282    2.1179 C   0  0  1  0  0  0  0  0  0  0  0  0
    7.1404   -0.2917    1.4493 C   0  0  1  0  0  0  0  0  0  0  0  0
    6.7557   -0.6924    0.1535 O   0  0  0  0  0  0  0  0  0  0  0  0
    8.2622    0.7420    1.3956 C   0  0  1  0  0  0  0  0  0  0  0  0
    8.7363    0.8041    2.3948 H   0  0  0  0  0  0  0  0  0  0  0  0
    9.3606    0.4782    0.3800 C   0  0  0  0  0  0  0  0  0  0  0  0
   10.4379    1.3567    0.5952 O   0  0  0  0  0  0  0  0  0  0  0  0
   11.4409    2.1550   -0.5029 Si  0  0  1  0  0  4  0  0  0  0  0  0
   13.0468    2.3865    0.4670 C   0  0  0  0  0  0  0  0  0  0  0  0
   14.2638    2.6605   -0.1878 C   0  0  0  0  0  0  0  0  0  0  0  0
   15.4475    2.8528    0.5310 C   0  0  0  0  0  0  0  0  0  0  0  0
   15.4391    2.7694    1.9268 C   0  0  0  0  0  0  0  0  0  0  0  0
   14.2439    2.4898    2.5962 C   0  0  0  0  0  0  0  0  0  0  0  0
   13.0623    2.2999    1.8727 C   0  0  0  0  0  0  0  0  0  0  0  0
   11.7768    0.9856   -1.9602 C   0  0  0  0  0  0  0  0  0  0  0  0
   11.5774    1.2892   -3.3205 C   0  0  0  0  0  0  0  0  0  0  0  0
   11.8608    0.3574   -4.3257 C   0  0  0  0  0  0  0  0  0  0  0  0
   12.3494   -0.9075   -3.9910 C   0  0  0  0  0  0  0  0  0  0  0  0
   12.5572   -1.2344   -2.6468 C   0  0  0  0  0  0  0  0  0  0  0  0
   12.2768   -0.2978   -1.6494 C   0  0  0  0  0  0  0  0  0  0  0  0
   10.6547    3.8523   -0.9534 C   0  0  1  0  0  0  0  0  0  0  0  0
   10.3748    4.5908    0.3752 C   0  0  0  0  0  0  0  0  0  0  0  0
   11.6184    4.7034   -1.8060 C   0  0  0  0  0  0  0  0  0  0  0  0
    9.3133    3.6666   -1.6948 C   0  0  0  0  0  0  0  0  0  0  0  0
    7.6033    1.9875    1.1115 O   0  0  0  0  0  0  0  0  0  0  0  0
    6.2925    1.9872    1.6221 C   0  0  1  0  0  0  0  0  0  0  0  0
    6.1868    2.6954    2.4550 H   0  0  0  0  0  0  0  0  0  0  0  0
    5.3592    2.4677    0.5966 N   0  0  0  0  0  0  0  0  0  0  0  0
    5.4904    2.0884   -0.7262 C   0  0  0  0  0  0  0  0  0  0  0  0
    4.6474    2.4825   -1.7134 C   0  0  0  0  0  0  0  0  0  0  0  0
    4.7987    2.0793   -3.1508 C   0  0  0  0  0  0  0  0  0  0  0  0
    3.5222    3.3533   -1.3629 C   0  0  0  0  0  0  0  0  0  0  0  0
    2.6872    3.7846   -2.1362 O   0  0  0  0  0  0  0  0  0  0  0  0
    3.4607    3.6717    0.0050 N   0  0  0  0  0  0  0  0  0  0  0  0
    2.6881    4.2675    0.2918 H   0  0  0  0  0  0  0  0  0  0  0  0
    4.3014    3.2680    1.0232 C   0  0  0  0  0  0  0  0  0  0  0  0
    4.1255    3.5907    2.1858 O   0  0  0  0  0  0  0  0  0  0  0  0
    4.6762    2.2917    5.6897 H   0  0  0  0  0  0  0  0  0  0  0  0
    2.9605    1.8098    5.7616 H   0  0  0  0  0  0  0  0  0  0  0  0
    3.5893    2.7058    4.3269 H   0  0  0  0  0  0  0  0  0  0  0  0
    1.4235   -1.1020    3.9400 H   0  0  0  0  0  0  0  0  0  0  0  0
    1.8547   -0.0894    5.3281 H   0  0  0  0  0  0  0  0  0  0  0  0
    2.7878   -1.5676    5.0023 H   0  0  0  0  0  0  0  0  0  0  0  0
    2.5743   -2.3830    2.3766 H   0  0  0  0  0  0  0  0  0  0  0  0
    3.7209   -2.1752    1.0350 H   0  0  0  0  0  0  0  0  0  0  0  0
    2.3735   -1.0258    1.2313 H   0  0  0  0  0  0  0  0  0  0  0  0
    6.1239    0.5117    3.2101 H   0  0  0  0  0  0  0  0  0  0  0  0
    7.4347   -1.1659    2.0609 H   0  0  0  0  0  0  0  0  0  0  0  0
    5.7887   -0.7916    0.1834 H   0  0  0  0  0  0  0  0  0  0  0  0
    9.6958   -0.5683    0.5100 H   0  0  0  0  0  0  0  0  0  0  0  0
    8.9437    0.5571   -0.6373 H   0  0  0  0  0  0  0  0  0  0  0  0
   14.2964    2.7144   -1.2804 H   0  0  0  0  0  0  0  0  0  0  0  0
   16.3802    3.0627    0.0002 H   0  0  0  0  0  0  0  0  0  0  0  0
   16.3637    2.9174    2.4913 H   0  0  0  0  0  0  0  0  0  0  0  0
   14.2324    2.4167    3.6873 H   0  0  0  0  0  0  0  0  0  0  0  0
   12.1349    2.0713    2.4038 H   0  0  0  0  0  0  0  0  0  0  0  0
   11.1953    2.2691   -3.6141 H   0  0  0  0  0  0  0  0  0  0  0  0
   11.6975    0.6224   -5.3737 H   0  0  0  0  0  0  0  0  0  0  0  0
   12.5701   -1.6371   -4.7747 H   0  0  0  0  0  0  0  0  0  0  0  0
   12.9428   -2.2211   -2.3761 H   0  0  0  0  0  0  0  0  0  0  0  0
   12.4564   -0.5699   -0.6045 H   0  0  0  0  0  0  0  0  0  0  0  0
   11.2955    4.7618    0.9560 H   0  0  0  0  0  0  0  0  0  0  0  0
    9.6697    4.0284    1.0059 H   0  0  0  0  0  0  0  0  0  0  0  0
    9.9260    5.5792    0.1679 H   0  0  0  0  0  0  0  0  0  0  0  0
   12.5766    4.8788   -1.2913 H   0  0  0  0  0  0  0  0  0  0  0  0
   11.1697    5.6930   -2.0082 H   0  0  0  0  0  0  0  0  0  0  0  0
   11.8437    4.2447   -2.7823 H   0  0  0  0  0  0  0  0  0  0  0  0
    8.5914    3.1041   -1.0837 H   0  0  0  0  0  0  0  0  0  0  0  0
    9.4249    3.1473   -2.6595 H   0  0  0  0  0  0  0  0  0  0  0  0
    8.8606    4.6525   -1.9067 H   0  0  0  0  0  0  0  0  0  0  0  0
    6.3367    1.4306   -0.9197 H   0  0  0  0  0  0  0  0  0  0  0  0
    5.6684    1.4216   -3.2935 H   0  0  0  0  0  0  0  0  0  0  0  0
    4.9181    2.9652   -3.7959 H   0  0  0  0  0  0  0  0  0  0  0  0
    3.8970    1.5564   -3.5096 H   0  0  0  0  0  0  0  0  0  0  0  0
  1  2  1  0
  1 47  1  0
  1 48  1  0
  1 49  1  0
  2  3  1  0
  3  4  1  6
  3  5  1  0
  3  6  1  0
  5 50  1  0
  5 51  1  0
  5 52  1  0
  6  7  1  1
  6  8  1  0
  6  9  1  0
  8 53  1  0
  8 54  1  0
  8 55  1  0
  9 10  1  0
 10 11  1  0
 10 35  1  0
 10 56  1  1
 11 12  1  0
 11 13  1  0
 11 57  1  1
 12 58  1  0
 13 14  1  1
 13 15  1  0
 13 34  1  0
 15 16  1  0
 15 59  1  0
 15 60  1  0
 17 16  1  1
 17 18  1  0
 17 24  1  0
 17 30  1  0
 18 19  2  0
 18 23  1  0
 19 20  1  0
 19 61  1  0
 20 21  2  0
 20 62  1  0
 21 22  1  0
 21 63  1  0
 22 23  2  0
 22 64  1  0
 23 65  1  0
 24 25  2  0
 24 29  1  0
 25 26  1  0
 25 66  1  0
 26 27  2  0
 26 67  1  0
 27 28  1  0
 27 68  1  0
 28 29  2  0
 28 69  1  0
 29 70  1  0
 30 31  1  1
 30 32  1  0
 30 33  1  0
 31 71  1  0
 31 72  1  0
 31 73  1  0
 32 74  1  0
 32 75  1  0
 32 76  1  0
 33 77  1  0
 33 78  1  0
 33 79  1  0
 34 35  1  0
 35 36  1  1
 35 37  1  0
 37 38  1  0
 37 45  1  0
 38 39  2  0
 38 80  1  0
 39 40  1  0
 39 41  1  0
 40 81  1  0
 40 82  1  0
 40 83  1  0
 41 42  2  0
 41 43  1  0
 43 44  1  0
 43 45  1  0
 45 46  2  0
M  END

