
     RDKit          3D

 62 64  0  0  0  0  0  0  0  0999 V2000
   12.0835    5.3828  -10.4164 C   0  0  0  0  0  0  0  0  0  0  0  0
   12.0832    4.4428   -9.3436 O   0  0  0  0  0  0  0  0  0  0  0  0
   11.3201    3.3450   -9.5153 C   0  0  0  0  0  0  0  0  0  0  0  0
   10.6652    3.1475  -10.5130 O   0  0  0  0  0  0  0  0  0  0  0  0
   11.3793    2.4185   -8.3465 C   0  0  0  0  0  0  0  0  0  0  0  0
   10.6276    1.2359   -8.4010 C   0  0  0  0  0  0  0  0  0  0  0  0
   10.6514    0.3410   -7.3350 C   0  0  0  0  0  0  0  0  0  0  0  0
   11.4247    0.5969   -6.1838 C   0  0  0  0  0  0  0  0  0  0  0  0
   11.4110   -0.3839   -5.0949 C   0  0  0  0  0  0  0  0  0  0  0  0
   12.0813   -0.3388   -3.9284 C   0  0  0  0  0  0  0  0  0  0  0  0
   11.9335   -1.4473   -2.9376 C   0  0  0  0  0  0  0  0  0  0  0  0
   11.2104   -2.4171   -3.1256 O   0  0  0  0  0  0  0  0  0  0  0  0
   12.6695   -1.2885   -1.7946 N   0  0  0  0  0  0  0  0  0  0  0  0
   12.6835   -2.2731   -0.7296 C   0  0  0  0  0  0  0  0  0  0  0  0
   13.7962   -3.3239   -0.8673 C   0  0  0  0  0  0  0  0  0  0  0  0
   15.1931   -2.7387   -1.1096 C   0  0  0  0  0  0  0  0  0  0  0  0
   15.5366   -1.6425   -0.2021 N   0  0  0  0  0  0  0  0  0  0  0  0
   15.7005   -1.9992    1.2039 C   0  0  0  0  0  0  0  0  0  0  0  0
   17.0448   -2.6685    1.5170 C   0  0  0  0  0  0  0  0  0  0  0  0
   18.1657   -1.8507    1.0465 N   0  0  0  0  0  0  0  0  0  0  0  0
   19.4414   -2.0710    1.5814 C   0  0  0  0  0  0  0  0  0  0  0  0
   19.6199   -2.3353    2.9608 C   0  0  0  0  0  0  0  0  0  0  0  0
   20.8885   -2.5223    3.5020 C   0  0  0  0  0  0  0  0  0  0  0  0
   22.0335   -2.4498    2.7034 C   0  0  0  0  0  0  0  0  0  0  0  0
   21.8731   -2.1888    1.3412 C   0  0  0  0  0  0  0  0  0  0  0  0
   23.0865   -2.0493    0.4551 C   0  0  1  0  0  0  0  0  0  0  0  0
   24.1225   -2.7820    0.8990 F   0  0  0  0  0  0  0  0  0  0  0  0
   22.8355   -2.4336   -0.8114 F   0  0  0  0  0  0  0  0  0  0  0  0
   23.5106   -0.7706    0.3934 F   0  0  0  0  0  0  0  0  0  0  0  0
   20.6029   -2.0134    0.7818 C   0  0  0  0  0  0  0  0  0  0  0  0
   18.0438   -1.4546   -0.3518 C   0  0  0  0  0  0  0  0  0  0  0  0
   16.6679   -0.8239   -0.6194 C   0  0  0  0  0  0  0  0  0  0  0  0
   12.1752    1.7915   -6.1425 C   0  0  0  0  0  0  0  0  0  0  0  0
   12.1546    2.6886   -7.2046 C   0  0  0  0  0  0  0  0  0  0  0  0
   12.7477    6.1997  -10.1081 H   0  0  0  0  0  0  0  0  0  0  0  0
   11.0683    5.7654  -10.6023 H   0  0  0  0  0  0  0  0  0  0  0  0
   12.4531    4.9190  -11.3437 H   0  0  0  0  0  0  0  0  0  0  0  0
   10.0293    1.0374   -9.2922 H   0  0  0  0  0  0  0  0  0  0  0  0
   10.0628   -0.5786   -7.3849 H   0  0  0  0  0  0  0  0  0  0  0  0
   10.7788   -1.2668   -5.2419 H   0  0  0  0  0  0  0  0  0  0  0  0
   12.7418    0.4969   -3.6756 H   0  0  0  0  0  0  0  0  0  0  0  0
   13.2946   -0.4967   -1.7072 H   0  0  0  0  0  0  0  0  0  0  0  0
   11.7064   -2.7773   -0.7354 H   0  0  0  0  0  0  0  0  0  0  0  0
   12.7861   -1.7367    0.2259 H   0  0  0  0  0  0  0  0  0  0  0  0
   13.5614   -3.9932   -1.7112 H   0  0  0  0  0  0  0  0  0  0  0  0
   13.7838   -3.9599    0.0351 H   0  0  0  0  0  0  0  0  0  0  0  0
   15.2203   -2.3207   -2.1293 H   0  0  0  0  0  0  0  0  0  0  0  0
   15.9300   -3.5706   -1.1050 H   0  0  0  0  0  0  0  0  0  0  0  0
   14.8822   -2.6618    1.5233 H   0  0  0  0  0  0  0  0  0  0  0  0
   15.6237   -1.0746    1.8036 H   0  0  0  0  0  0  0  0  0  0  0  0
   17.0862   -3.6790    1.0562 H   0  0  0  0  0  0  0  0  0  0  0  0
   17.1153   -2.8162    2.6016 H   0  0  0  0  0  0  0  0  0  0  0  0
   18.7567   -2.3734    3.6260 H   0  0  0  0  0  0  0  0  0  0  0  0
   20.9859   -2.7210    4.5723 H   0  0  0  0  0  0  0  0  0  0  0  0
   23.0271   -2.5973    3.1278 H   0  0  0  0  0  0  0  0  0  0  0  0
   20.5318   -1.8516   -0.2916 H   0  0  0  0  0  0  0  0  0  0  0  0
   18.2150   -2.3142   -1.0359 H   0  0  0  0  0  0  0  0  0  0  0  0
   18.8134   -0.7036   -0.5821 H   0  0  0  0  0  0  0  0  0  0  0  0
   16.5789   -0.5935   -1.6934 H   0  0  0  0  0  0  0  0  0  0  0  0
   16.6205    0.1337   -0.0701 H   0  0  0  0  0  0  0  0  0  0  0  0
   12.7832    2.0227   -5.2654 H   0  0  0  0  0  0  0  0  0  0  0  0
   12.7386    3.6085   -7.1608 H   0  0  0  0  0  0  0  0  0  0  0  0
  1  2  1  0
  1 35  1  0
  1 36  1  0
  1 37  1  0
  2  3  1  0
  3  4  2  0
  3  5  1  0
  5  6  2  0
  5 34  1  0
  6  7  1  0
  6 38  1  0
  7  8  2  0
  7 39  1  0
  8  9  1  0
  8 33  1  0
  9 10  2  0
  9 40  1  0
 10 11  1  0
 10 41  1  0
 11 12  2  0
 11 13  1  0
 13 14  1  0
 13 42  1  0
 14 15  1  0
 14 43  1  0
 14 44  1  0
 15 16  1  0
 15 45  1  0
 15 46  1  0
 16 17  1  0
 16 47  1  0
 16 48  1  0
 17 18  1  0
 17 32  1  0
 18 19  1  0
 18 49  1  0
 18 50  1  0
 19 20  1  0
 19 51  1  0
 19 52  1  0
 20 21  1  0
 20 31  1  0
 21 22  2  0
 21 30  1  0
 22 23  1  0
 22 53  1  0
 23 24  2  0
 23 54  1  0
 24 25  1  0
 24 55  1  0
 25 26  1  0
 25 30  2  0
 26 27  1  1
 26 28  1  0
 26 29  1  0
 30 56  1  0
 31 32  1  0
 31 57  1  0
 31 58  1  0
 32 59  1  0
 32 60  1  0
 33 34  2  0
 33 61  1  0
 34 62  1  0
M  END

