
     RDKit          3D

 40 41  0  0  0  0  0  0  0  0999 V2000
    1.1324    0.0083    0.1514 C   0  0  0  0  0  0  0  0  0  0  0  0
    2.6564    0.0069    0.0332 C   0  0  1  0  0  0  0  0  0  0  0  0
    3.1481   -0.1830   -1.4226 C   0  0  0  0  0  0  0  0  0  0  0  0
    2.7337   -1.4229   -2.0395 N   0  0  0  0  0  0  0  0  0  0  0  0
    3.2680   -2.7241   -1.6617 C   0  0  0  0  0  0  0  0  0  0  0  0
    2.8324   -3.6383   -2.8250 C   0  0  0  0  0  0  0  0  0  0  0  0
    1.5731   -2.9551   -3.3738 C   0  0  0  0  0  0  0  0  0  0  0  0
    1.7552   -1.4817   -3.0053 C   0  0  0  0  0  0  0  0  0  0  0  0
    1.1443   -0.5306   -3.4525 O   0  0  0  0  0  0  0  0  0  0  0  0
    3.2171    1.2311    0.5800 N   0  0  0  0  0  0  0  0  0  0  0  0
    4.3335    1.2533    1.3590 C   0  0  0  0  0  0  0  0  0  0  0  0
    4.9643    0.2589    1.6921 O   0  0  0  0  0  0  0  0  0  0  0  0
    4.7374    2.6294    1.7932 C   0  0  0  0  0  0  0  0  0  0  0  0
    5.8317    2.8736    2.5848 C   0  0  0  0  0  0  0  0  0  0  0  0
    5.9744    4.5669    2.8640 S   0  0  0  0  0  0  0  0  0  0  0  0
    4.5389    4.8391    1.8821 C   0  0  0  0  0  0  0  0  0  0  0  0
    3.9851    6.2150    1.6522 C   0  0  0  0  0  0  0  0  0  0  0  0
    2.5389    6.3687    2.1490 C   0  0  0  0  0  0  0  0  0  0  0  0
    2.0291    7.6912    1.8144 N   0  0  0  0  0  0  0  0  0  0  0  0
    4.0247    3.7407    1.4102 N   0  0  0  0  0  0  0  0  0  0  0  0
    0.7098   -0.9337   -0.2283 H   0  0  0  0  0  0  0  0  0  0  0  0
    0.6871    0.8257   -0.4395 H   0  0  0  0  0  0  0  0  0  0  0  0
    0.8253    0.1249    1.2019 H   0  0  0  0  0  0  0  0  0  0  0  0
    3.0781   -0.8048    0.6467 H   0  0  0  0  0  0  0  0  0  0  0  0
    4.2502   -0.1239   -1.4226 H   0  0  0  0  0  0  0  0  0  0  0  0
    2.7570    0.6301   -2.0540 H   0  0  0  0  0  0  0  0  0  0  0  0
    2.8500   -3.0681   -0.6954 H   0  0  0  0  0  0  0  0  0  0  0  0
    4.3633   -2.6769   -1.5404 H   0  0  0  0  0  0  0  0  0  0  0  0
    2.6698   -4.6763   -2.5010 H   0  0  0  0  0  0  0  0  0  0  0  0
    3.6186   -3.6508   -3.5967 H   0  0  0  0  0  0  0  0  0  0  0  0
    0.6529   -3.3139   -2.8797 H   0  0  0  0  0  0  0  0  0  0  0  0
    1.4217   -3.0628   -4.4569 H   0  0  0  0  0  0  0  0  0  0  0  0
    2.8012    2.1296    0.3498 H   0  0  0  0  0  0  0  0  0  0  0  0
    6.5240    2.1377    2.9877 H   0  0  0  0  0  0  0  0  0  0  0  0
    4.0019    6.4401    0.5728 H   0  0  0  0  0  0  0  0  0  0  0  0
    4.6319    6.9615    2.1421 H   0  0  0  0  0  0  0  0  0  0  0  0
    2.5062    6.1163    3.2313 H   0  0  0  0  0  0  0  0  0  0  0  0
    1.9215    5.6130    1.6378 H   0  0  0  0  0  0  0  0  0  0  0  0
    2.4641    8.4043    2.4014 H   0  0  0  0  0  0  0  0  0  0  0  0
    1.0275    7.7458    1.9961 H   0  0  0  0  0  0  0  0  0  0  0  0
  1  2  1  0
  1 21  1  0
  1 22  1  0
  1 23  1  0
  2  3  1  0
  2 10  1  0
  2 24  1  1
  3  4  1  0
  3 25  1  0
  3 26  1  0
  4  5  1  0
  4  8  1  0
  5  6  1  0
  5 27  1  0
  5 28  1  0
  6  7  1  0
  6 29  1  0
  6 30  1  0
  7  8  1  0
  7 31  1  0
  7 32  1  0
  8  9  2  0
 10 11  1  0
 10 33  1  0
 11 12  2  0
 11 13  1  0
 13 14  2  0
 13 20  1  0
 14 15  1  0
 14 34  1  0
 15 16  1  0
 16 17  1  0
 16 20  2  0
 17 18  1  0
 17 35  1  0
 17 36  1  0
 18 19  1  0
 18 37  1  0
 18 38  1  0
 19 39  1  0
 19 40  1  0
M  END

