
     RDKit          3D

 41 42  0  0  0  0  0  0  0  0999 V2000
    3.7051   -1.4804   -2.2313 C   0  0  0  0  0  0  0  0  0  0  0  0
    3.5502   -0.5885   -1.0279 C   0  0  0  0  0  0  0  0  0  0  0  0
    4.3313    0.5549   -0.8411 C   0  0  0  0  0  0  0  0  0  0  0  0
    4.1788    1.3776    0.2828 C   0  0  0  0  0  0  0  0  0  0  0  0
    3.2234    1.0505    1.2425 C   0  0  0  0  0  0  0  0  0  0  0  0
    2.4235   -0.0887    1.0862 C   0  0  0  0  0  0  0  0  0  0  0  0
    2.5847   -0.9045   -0.0419 C   0  0  0  0  0  0  0  0  0  0  0  0
    1.8549   -2.0292   -0.2786 O   0  0  0  0  0  0  0  0  0  0  0  0
    0.8669   -2.4404    0.6514 C   0  0  0  0  0  0  0  0  0  0  0  0
    0.2096   -3.7020    0.1086 C   0  0  0  0  0  0  0  0  0  0  0  0
   -0.8860   -4.2328    1.0413 C   0  0  1  0  0  0  0  0  0  0  0  0
   -1.8647   -3.2250    1.2803 O   0  0  0  0  0  0  0  0  0  0  0  0
   -1.5774   -5.5695    0.6649 C   0  0  1  0  0  0  0  0  0  0  0  0
   -2.3492   -5.5736   -0.6767 C   0  0  0  0  0  0  0  0  0  0  0  0
   -1.5136   -5.9901   -1.8928 C   0  0  0  0  0  0  0  0  0  0  0  0
   -0.8635   -7.2659   -1.6258 N   0  0  0  0  0  0  0  0  0  0  0  0
    0.0741   -7.1865   -0.5136 C   0  0  0  0  0  0  0  0  0  0  0  0
   -0.6784   -6.8242    0.7718 C   0  0  0  0  0  0  0  0  0  0  0  0
    4.4907   -1.1059   -2.9037 H   0  0  0  0  0  0  0  0  0  0  0  0
    2.7636   -1.5511   -2.8010 H   0  0  0  0  0  0  0  0  0  0  0  0
    3.9624   -2.5109   -1.9350 H   0  0  0  0  0  0  0  0  0  0  0  0
    5.0800    0.8067   -1.5980 H   0  0  0  0  0  0  0  0  0  0  0  0
    4.8043    2.2653    0.4020 H   0  0  0  0  0  0  0  0  0  0  0  0
    3.0895    1.6803    2.1259 H   0  0  0  0  0  0  0  0  0  0  0  0
    1.6793   -0.3296    1.8453 H   0  0  0  0  0  0  0  0  0  0  0  0
    0.1122   -1.6492    0.7980 H   0  0  0  0  0  0  0  0  0  0  0  0
    1.3296   -2.6397    1.6375 H   0  0  0  0  0  0  0  0  0  0  0  0
    0.9867   -4.4661   -0.0461 H   0  0  0  0  0  0  0  0  0  0  0  0
   -0.2085   -3.4767   -0.8877 H   0  0  0  0  0  0  0  0  0  0  0  0
   -0.4280   -4.3998    2.0329 H   0  0  0  0  0  0  0  0  0  0  0  0
   -2.3071   -3.0329    0.4421 H   0  0  0  0  0  0  0  0  0  0  0  0
   -2.3375   -5.6567    1.4587 H   0  0  0  0  0  0  0  0  0  0  0  0
   -2.8223   -4.5927   -0.8624 H   0  0  0  0  0  0  0  0  0  0  0  0
   -3.1780   -6.2952   -0.5864 H   0  0  0  0  0  0  0  0  0  0  0  0
   -0.7884   -5.1868   -2.1526 H   0  0  0  0  0  0  0  0  0  0  0  0
   -2.1775   -6.1055   -2.7655 H   0  0  0  0  0  0  0  0  0  0  0  0
   -0.4000   -7.6141   -2.4622 H   0  0  0  0  0  0  0  0  0  0  0  0
    0.8937   -6.4559   -0.6983 H   0  0  0  0  0  0  0  0  0  0  0  0
    0.5574   -8.1689   -0.3848 H   0  0  0  0  0  0  0  0  0  0  0  0
    0.0334   -6.7147    1.6083 H   0  0  0  0  0  0  0  0  0  0  0  0
   -1.3266   -7.6813    1.0192 H   0  0  0  0  0  0  0  0  0  0  0  0
  1  2  1  0
  1 19  1  0
  1 20  1  0
  1 21  1  0
  2  3  2  0
  2  7  1  0
  3  4  1  0
  3 22  1  0
  4  5  2  0
  4 23  1  0
  5  6  1  0
  5 24  1  0
  6  7  2  0
  6 25  1  0
  7  8  1  0
  8  9  1  0
  9 10  1  0
  9 26  1  0
  9 27  1  0
 10 11  1  0
 10 28  1  0
 10 29  1  0
 11 12  1  0
 11 13  1  0
 11 30  1  1
 12 31  1  0
 13 14  1  0
 13 18  1  0
 13 32  1  1
 14 15  1  0
 14 33  1  0
 14 34  1  0
 15 16  1  0
 15 35  1  0
 15 36  1  0
 16 17  1  0
 16 37  1  0
 17 18  1  0
 17 38  1  0
 17 39  1  0
 18 40  1  0
 18 41  1  0
M  END

