
     RDKit          3D

 37 38  0  0  0  0  0  0  0  0999 V2000
    2.7143    0.5803   -0.9922 C   0  0  0  0  0  0  0  0  0  0  0  0
    2.3820   -0.6767   -0.1805 C   0  0  1  0  0  0  0  0  0  0  0  0
    2.9335   -1.9601   -0.8151 C   0  0  0  0  0  0  0  0  0  0  0  0
    2.7757   -0.5559    1.2489 N   0  0  0  0  0  0  0  0  0  0  0  0
    1.7231   -0.8305    2.2234 C   0  0  0  0  0  0  0  0  0  0  0  0
    0.5670    0.1590    2.1981 C   0  0  0  0  0  0  0  0  0  0  0  0
    0.7775    1.5412    2.3340 C   0  0  0  0  0  0  0  0  0  0  0  0
   -0.3281    2.3912    2.3285 C   0  0  0  0  0  0  0  0  0  0  0  0
   -1.6043    1.8393    2.1877 C   0  0  0  0  0  0  0  0  0  0  0  0
   -1.7102    0.4526    2.0582 C   0  0  0  0  0  0  0  0  0  0  0  0
   -0.6558   -0.3680    2.0599 N   0  0  0  0  0  0  0  0  0  0  0  0
    4.0951   -0.4016    1.5804 C   0  0  0  0  0  0  0  0  0  0  0  0
    4.9910   -0.3170    0.7540 O   0  0  0  0  0  0  0  0  0  0  0  0
    4.4638   -0.3486    3.0543 C   0  0  0  0  0  0  0  0  0  0  0  0
    4.9685   -1.4811    3.7109 C   0  0  0  0  0  0  0  0  0  0  0  0
    5.4326   -1.4023    5.0263 C   0  0  0  0  0  0  0  0  0  0  0  0
    5.4132   -0.1781    5.7026 C   0  0  0  0  0  0  0  0  0  0  0  0
    4.9300    0.9666    5.0635 C   0  0  0  0  0  0  0  0  0  0  0  0
    4.4712    0.8601    3.7540 C   0  0  0  0  0  0  0  0  0  0  0  0
    4.0088    1.9686    3.1386 F   0  0  0  0  0  0  0  0  0  0  0  0
    2.2944    0.4854   -2.0064 H   0  0  0  0  0  0  0  0  0  0  0  0
    3.7996    0.7243   -1.0717 H   0  0  0  0  0  0  0  0  0  0  0  0
    2.2740    1.4744   -0.5246 H   0  0  0  0  0  0  0  0  0  0  0  0
    1.2850   -0.7658   -0.1528 H   0  0  0  0  0  0  0  0  0  0  0  0
    4.0297   -1.9241   -0.8794 H   0  0  0  0  0  0  0  0  0  0  0  0
    2.5258   -2.0822   -1.8312 H   0  0  0  0  0  0  0  0  0  0  0  0
    2.6430   -2.8464   -0.2282 H   0  0  0  0  0  0  0  0  0  0  0  0
    2.1691   -0.8446    3.2276 H   0  0  0  0  0  0  0  0  0  0  0  0
    1.2891   -1.8289    2.0467 H   0  0  0  0  0  0  0  0  0  0  0  0
    1.7891    1.9344    2.4469 H   0  0  0  0  0  0  0  0  0  0  0  0
   -0.1956    3.4711    2.4351 H   0  0  0  0  0  0  0  0  0  0  0  0
   -2.4984    2.4669    2.1767 H   0  0  0  0  0  0  0  0  0  0  0  0
   -2.6936   -0.0188    1.9427 H   0  0  0  0  0  0  0  0  0  0  0  0
    4.9980   -2.4338    3.1760 H   0  0  0  0  0  0  0  0  0  0  0  0
    5.8169   -2.2968    5.5215 H   0  0  0  0  0  0  0  0  0  0  0  0
    5.7786   -0.1097    6.7300 H   0  0  0  0  0  0  0  0  0  0  0  0
    4.9076    1.9399    5.5576 H   0  0  0  0  0  0  0  0  0  0  0  0
  1  2  1  0
  1 21  1  0
  1 22  1  0
  1 23  1  0
  2  3  1  0
  2  4  1  0
  2 24  1  1
  3 25  1  0
  3 26  1  0
  3 27  1  0
  4  5  1  0
  4 12  1  0
  5  6  1  0
  5 28  1  0
  5 29  1  0
  6  7  2  0
  6 11  1  0
  7  8  1  0
  7 30  1  0
  8  9  2  0
  8 31  1  0
  9 10  1  0
  9 32  1  0
 10 11  2  0
 10 33  1  0
 12 13  2  0
 12 14  1  0
 14 15  2  0
 14 19  1  0
 15 16  1  0
 15 34  1  0
 16 17  2  0
 16 35  1  0
 17 18  1  0
 17 36  1  0
 18 19  2  0
 18 37  1  0
 19 20  1  0
M  END

