
     RDKit          3D

 55 57  0  0  0  0  0  0  0  0999 V2000
    2.8962    0.0724    2.3619 C   0  0  0  0  0  0  0  0  0  0  0  0
    2.0883    0.6818    1.3828 O   0  0  0  0  0  0  0  0  0  0  0  0
    1.3122   -0.0926    0.5798 C   0  0  0  0  0  0  0  0  0  0  0  0
    0.5370    0.5900   -0.3735 C   0  0  0  0  0  0  0  0  0  0  0  0
   -0.2889   -0.1284   -1.2325 C   0  0  0  0  0  0  0  0  0  0  0  0
   -0.3573   -1.5251   -1.1589 C   0  0  0  0  0  0  0  0  0  0  0  0
    0.4091   -2.2165   -0.2123 C   0  0  0  0  0  0  0  0  0  0  0  0
    0.3817   -3.7280   -0.1548 C   0  0  0  0  0  0  0  0  0  0  0  0
    1.3932   -4.3697   -1.1293 C   0  0  0  0  0  0  0  0  0  0  0  0
    1.3843   -5.8174   -1.1104 N   0  0  0  0  0  0  0  0  0  0  0  0
    1.9741   -6.6063   -0.0406 C   0  0  0  0  0  0  0  0  0  0  0  0
    2.0135   -8.0394   -0.6082 C   0  0  2  0  0  0  0  0  0  0  0  0
    3.4173   -8.3836   -1.1539 C   0  0  0  0  0  0  0  0  0  0  0  0
    4.3665   -7.6249   -1.0471 O   0  0  0  0  0  0  0  0  0  0  0  0
    3.4849   -9.6219   -1.7332 N   0  0  0  0  0  0  0  0  0  0  0  0
    4.5864  -10.2710   -2.3189 C   0  0  0  0  0  0  0  0  0  0  0  0
    5.8709   -9.7167   -2.3977 C   0  0  0  0  0  0  0  0  0  0  0  0
    6.9079  -10.4440   -3.0033 C   0  0  0  0  0  0  0  0  0  0  0  0
    8.1805   -9.9802   -3.1218 O   0  0  0  0  0  0  0  0  0  0  0  0
    8.4934   -8.6986   -2.6250 C   0  0  0  0  0  0  0  0  0  0  0  0
    6.6580  -11.7191   -3.5253 C   0  0  0  0  0  0  0  0  0  0  0  0
    5.3772  -12.2708   -3.4468 C   0  0  0  0  0  0  0  0  0  0  0  0
    4.3357  -11.5586   -2.8486 C   0  0  0  0  0  0  0  0  0  0  0  0
    3.0443  -12.0026   -2.7198 O   0  0  0  0  0  0  0  0  0  0  0  0
    2.6972  -13.2661   -3.2391 C   0  0  0  0  0  0  0  0  0  0  0  0
    0.9144   -8.0336   -1.6947 C   0  0  0  0  0  0  0  0  0  0  0  0
    0.7465   -6.5588   -2.0701 C   0  0  0  0  0  0  0  0  0  0  0  0
    0.1445   -6.1220   -3.0310 O   0  0  0  0  0  0  0  0  0  0  0  0
    1.2456   -1.4916    0.6556 C   0  0  0  0  0  0  0  0  0  0  0  0
    3.4274    0.8828    2.8794 H   0  0  0  0  0  0  0  0  0  0  0  0
    3.6402   -0.6132    1.9163 H   0  0  0  0  0  0  0  0  0  0  0  0
    2.2971   -0.4897    3.1015 H   0  0  0  0  0  0  0  0  0  0  0  0
    0.6011    1.6792   -0.4135 H   0  0  0  0  0  0  0  0  0  0  0  0
   -0.8923    0.4068   -1.9705 H   0  0  0  0  0  0  0  0  0  0  0  0
   -1.0116   -2.0786   -1.8376 H   0  0  0  0  0  0  0  0  0  0  0  0
   -0.6243   -4.0965   -0.4123 H   0  0  0  0  0  0  0  0  0  0  0  0
    0.5967   -4.0653    0.8732 H   0  0  0  0  0  0  0  0  0  0  0  0
    2.4121   -4.0127   -0.9002 H   0  0  0  0  0  0  0  0  0  0  0  0
    1.1526   -4.0651   -2.1582 H   0  0  0  0  0  0  0  0  0  0  0  0
    1.3641   -6.5626    0.8814 H   0  0  0  0  0  0  0  0  0  0  0  0
    2.9899   -6.2534    0.1923 H   0  0  0  0  0  0  0  0  0  0  0  0
    1.7916   -8.7757    0.1815 H   0  0  0  0  0  0  0  0  0  0  0  0
    2.6366  -10.1787   -1.7618 H   0  0  0  0  0  0  0  0  0  0  0  0
    6.0233   -8.7258   -1.9820 H   0  0  0  0  0  0  0  0  0  0  0  0
    9.5600   -8.5352   -2.8316 H   0  0  0  0  0  0  0  0  0  0  0  0
    8.3246   -8.6251   -1.5354 H   0  0  0  0  0  0  0  0  0  0  0  0
    7.9064   -7.9071   -3.1247 H   0  0  0  0  0  0  0  0  0  0  0  0
    7.4780  -12.2671   -3.9920 H   0  0  0  0  0  0  0  0  0  0  0  0
    5.2009  -13.2641   -3.8601 H   0  0  0  0  0  0  0  0  0  0  0  0
    1.6271  -13.4085   -3.0361 H   0  0  0  0  0  0  0  0  0  0  0  0
    3.2655  -14.0788   -2.7517 H   0  0  0  0  0  0  0  0  0  0  0  0
    2.8651  -13.3196   -4.3298 H   0  0  0  0  0  0  0  0  0  0  0  0
   -0.0508   -8.3999   -1.3070 H   0  0  0  0  0  0  0  0  0  0  0  0
    1.1462   -8.6202   -2.5949 H   0  0  0  0  0  0  0  0  0  0  0  0
    1.8367   -2.0357    1.3940 H   0  0  0  0  0  0  0  0  0  0  0  0
  1  2  1  0
  1 30  1  0
  1 31  1  0
  1 32  1  0
  2  3  1  0
  3  4  2  0
  3 29  1  0
  4  5  1  0
  4 33  1  0
  5  6  2  0
  5 34  1  0
  6  7  1  0
  6 35  1  0
  7  8  1  0
  7 29  2  0
  8  9  1  0
  8 36  1  0
  8 37  1  0
  9 10  1  0
  9 38  1  0
  9 39  1  0
 10 11  1  0
 10 27  1  0
 11 12  1  0
 11 40  1  0
 11 41  1  0
 12 13  1  0
 12 26  1  0
 12 42  1  1
 13 14  2  0
 13 15  1  0
 15 16  1  0
 15 43  1  0
 16 17  2  0
 16 23  1  0
 17 18  1  0
 17 44  1  0
 18 19  1  0
 18 21  2  0
 19 20  1  0
 20 45  1  0
 20 46  1  0
 20 47  1  0
 21 22  1  0
 21 48  1  0
 22 23  2  0
 22 49  1  0
 23 24  1  0
 24 25  1  0
 25 50  1  0
 25 51  1  0
 25 52  1  0
 26 27  1  0
 26 53  1  0
 26 54  1  0
 27 28  2  0
 29 55  1  0
M  END

