
     RDKit          3D

 39 39  0  0  0  0  0  0  0  0999 V2000
    0.8014   -0.0495   -0.5447 C   0  0  0  0  0  0  0  0  0  0  0  0
    2.2928   -0.1363   -0.2395 C   0  0  0  0  0  0  0  0  0  0  0  0
    2.9562    1.1364   -0.4625 N   0  0  0  0  0  0  0  0  0  0  0  0
    4.3839    1.1326   -0.1994 C   0  0  0  0  0  0  0  0  0  0  0  0
    4.9953    2.5263   -0.4088 C   0  0  1  0  0  0  0  0  0  0  0  0
    4.4743    3.5701    0.5753 C   0  0  0  0  0  0  0  0  0  0  0  0
    4.1943    3.2855    1.9227 C   0  0  0  0  0  0  0  0  0  0  0  0
    3.7514    4.2882    2.7916 C   0  0  0  0  0  0  0  0  0  0  0  0
    3.5779    5.5983    2.3423 C   0  0  0  0  0  0  0  0  0  0  0  0
    3.8530    5.8838    1.0020 C   0  0  0  0  0  0  0  0  0  0  0  0
    3.6342    7.5170    0.4076 Cl  0  0  0  0  0  0  0  0  0  0  0  0
    4.2915    4.8894    0.1261 C   0  0  0  0  0  0  0  0  0  0  0  0
    6.5562    2.5328   -0.4572 C   0  0  1  0  0  0  0  0  0  0  0  0
    7.2391    1.8861    0.7533 C   0  0  0  0  0  0  0  0  0  0  0  0
    7.0894    1.9253   -1.7577 C   0  0  0  0  0  0  0  0  0  0  0  0
    6.5627    2.6241   -2.8589 O   0  0  0  0  0  0  0  0  0  0  0  0
    6.9827    2.1350   -4.1035 C   0  0  0  0  0  0  0  0  0  0  0  0
    0.3106   -1.0259   -0.4081 H   0  0  0  0  0  0  0  0  0  0  0  0
    0.6370    0.2858   -1.5805 H   0  0  0  0  0  0  0  0  0  0  0  0
    0.2997    0.6702    0.1250 H   0  0  0  0  0  0  0  0  0  0  0  0
    2.7608   -0.8872   -0.9024 H   0  0  0  0  0  0  0  0  0  0  0  0
    2.4380   -0.5231    0.7975 H   0  0  0  0  0  0  0  0  0  0  0  0
    2.5028    1.8658    0.0883 H   0  0  0  0  0  0  0  0  0  0  0  0
    4.8558    0.4270   -0.9054 H   0  0  0  0  0  0  0  0  0  0  0  0
    4.6334    0.7434    0.8144 H   0  0  0  0  0  0  0  0  0  0  0  0
    4.6722    2.8505   -1.4091 H   0  0  0  0  0  0  0  0  0  0  0  0
    4.3167    2.2698    2.3041 H   0  0  0  0  0  0  0  0  0  0  0  0
    3.5374    4.0462    3.8359 H   0  0  0  0  0  0  0  0  0  0  0  0
    3.2318    6.3879    3.0109 H   0  0  0  0  0  0  0  0  0  0  0  0
    4.4914    5.1432   -0.9172 H   0  0  0  0  0  0  0  0  0  0  0  0
    6.8520    3.5957   -0.4850 H   0  0  0  0  0  0  0  0  0  0  0  0
    7.0609    0.7992    0.7979 H   0  0  0  0  0  0  0  0  0  0  0  0
    6.8812    2.3244    1.6969 H   0  0  0  0  0  0  0  0  0  0  0  0
    8.3298    2.0387    0.7134 H   0  0  0  0  0  0  0  0  0  0  0  0
    6.8345    0.8456   -1.8245 H   0  0  0  0  0  0  0  0  0  0  0  0
    8.1987    1.9855   -1.7576 H   0  0  0  0  0  0  0  0  0  0  0  0
    6.5106    2.7488   -4.8845 H   0  0  0  0  0  0  0  0  0  0  0  0
    6.6840    1.0779   -4.2578 H   0  0  0  0  0  0  0  0  0  0  0  0
    8.0838    2.1967   -4.2244 H   0  0  0  0  0  0  0  0  0  0  0  0
  1  2  1  0
  1 18  1  0
  1 19  1  0
  1 20  1  0
  2  3  1  0
  2 21  1  0
  2 22  1  0
  3  4  1  0
  3 23  1  0
  4  5  1  0
  4 24  1  0
  4 25  1  0
  5  6  1  0
  5 13  1  0
  5 26  1  6
  6  7  2  0
  6 12  1  0
  7  8  1  0
  7 27  1  0
  8  9  2  0
  8 28  1  0
  9 10  1  0
  9 29  1  0
 10 11  1  0
 10 12  2  0
 12 30  1  0
 13 14  1  0
 13 15  1  0
 13 31  1  6
 14 32  1  0
 14 33  1  0
 14 34  1  0
 15 16  1  0
 15 35  1  0
 15 36  1  0
 16 17  1  0
 17 37  1  0
 17 38  1  0
 17 39  1  0
M  END

