
     RDKit          3D

 39 40  0  0  0  0  0  0  0  0999 V2000
    1.6507   -0.8813   -0.8203 N   0  0  0  0  0  0  0  0  0  0  0  0
    2.3037   -0.0432    0.1791 C   0  0  0  0  0  0  0  0  0  0  0  0
    3.0168    1.1577   -0.4692 C   0  0  1  0  0  0  0  0  0  0  0  0
    2.0745    2.0467   -1.3015 C   0  0  0  0  0  0  0  0  0  0  0  0
    1.1730    2.9048   -0.4073 C   0  0  0  0  0  0  0  0  0  0  0  0
    1.9877    3.6647    0.6396 C   0  0  0  0  0  0  0  0  0  0  0  0
    2.8276    2.7594    1.4229 N   0  0  0  0  0  0  0  0  0  0  0  0
    3.4904    3.4232    2.5310 C   0  0  0  0  0  0  0  0  0  0  0  0
    2.5556    3.8274    3.6579 C   0  0  0  0  0  0  0  0  0  0  0  0
    2.7357    5.0319    4.3503 C   0  0  0  0  0  0  0  0  0  0  0  0
    1.9085    5.3730    5.4216 C   0  0  0  0  0  0  0  0  0  0  0  0
    0.8890    4.5067    5.8193 C   0  0  0  0  0  0  0  0  0  0  0  0
    0.0166    4.8634    6.8404 O   0  0  0  0  0  0  0  0  0  0  0  0
    0.4559    4.8518    8.1206 C   0  0  1  0  0  0  0  0  0  0  0  0
    1.0139    3.6843    8.4575 F   0  0  0  0  0  0  0  0  0  0  0  0
    1.3744    5.8078    8.3525 F   0  0  0  0  0  0  0  0  0  0  0  0
   -0.5854    5.0783    8.9078 F   0  0  0  0  0  0  0  0  0  0  0  0
    0.6893    3.3034    5.1265 C   0  0  0  0  0  0  0  0  0  0  0  0
   -0.7124    2.1254    5.6344 Br  0  0  0  0  0  0  0  0  0  0  0  0
    1.5183    2.9712    4.0543 C   0  0  0  0  0  0  0  0  0  0  0  0
    3.7527    2.0100    0.5757 C   0  0  0  0  0  0  0  0  0  0  0  0
    1.0794   -1.5980   -0.3744 H   0  0  0  0  0  0  0  0  0  0  0  0
    2.3445   -1.3759   -1.3828 H   0  0  0  0  0  0  0  0  0  0  0  0
    3.0481   -0.5839    0.8048 H   0  0  0  0  0  0  0  0  0  0  0  0
    1.5358    0.3230    0.8785 H   0  0  0  0  0  0  0  0  0  0  0  0
    3.7894    0.7472   -1.1467 H   0  0  0  0  0  0  0  0  0  0  0  0
    1.4723    1.4133   -1.9695 H   0  0  0  0  0  0  0  0  0  0  0  0
    2.6864    2.7109   -1.9383 H   0  0  0  0  0  0  0  0  0  0  0  0
    0.4297    2.2715    0.1052 H   0  0  0  0  0  0  0  0  0  0  0  0
    0.6026    3.6252   -1.0171 H   0  0  0  0  0  0  0  0  0  0  0  0
    1.3173    4.2069    1.3248 H   0  0  0  0  0  0  0  0  0  0  0  0
    2.6167    4.4365    0.1326 H   0  0  0  0  0  0  0  0  0  0  0  0
    4.0658    4.3196    2.2024 H   0  0  0  0  0  0  0  0  0  0  0  0
    4.2379    2.7215    2.9424 H   0  0  0  0  0  0  0  0  0  0  0  0
    3.5275    5.7209    4.0447 H   0  0  0  0  0  0  0  0  0  0  0  0
    2.0358    6.3168    5.9530 H   0  0  0  0  0  0  0  0  0  0  0  0
    1.3579    2.0417    3.5070 H   0  0  0  0  0  0  0  0  0  0  0  0
    4.3694    1.3636    1.2228 H   0  0  0  0  0  0  0  0  0  0  0  0
    4.4570    2.6970    0.0488 H   0  0  0  0  0  0  0  0  0  0  0  0
  1  2  1  0
  1 22  1  0
  1 23  1  0
  2  3  1  0
  2 24  1  0
  2 25  1  0
  3  4  1  0
  3 21  1  0
  3 26  1  6
  4  5  1  0
  4 27  1  0
  4 28  1  0
  5  6  1  0
  5 29  1  0
  5 30  1  0
  6  7  1  0
  6 31  1  0
  6 32  1  0
  7  8  1  0
  7 21  1  0
  8  9  1  0
  8 33  1  0
  8 34  1  0
  9 10  2  0
  9 20  1  0
 10 11  1  0
 10 35  1  0
 11 12  2  0
 11 36  1  0
 12 13  1  0
 12 18  1  0
 13 14  1  0
 14 15  1  1
 14 16  1  0
 14 17  1  0
 18 19  1  0
 18 20  2  0
 20 37  1  0
 21 38  1  0
 21 39  1  0
M  END

