
     RDKit          3D

 45 46  0  0  0  0  0  0  0  0999 V2000
    9.8894    4.0932    1.5147 C   0  0  0  0  0  0  0  0  0  0  0  0
    9.0930    3.0322    1.0403 O   0  0  0  0  0  0  0  0  0  0  0  0
    8.2721    2.3810    1.9068 C   0  0  0  0  0  0  0  0  0  0  0  0
    8.1679    2.6665    3.2732 C   0  0  0  0  0  0  0  0  0  0  0  0
    7.2706    1.9559    4.0806 C   0  0  0  0  0  0  0  0  0  0  0  0
    6.4604    0.9440    3.5544 C   0  0  0  0  0  0  0  0  0  0  0  0
    5.4884    0.1806    4.4287 C   0  0  0  0  0  0  0  0  0  0  0  0
    5.9926   -1.1108    5.0990 C   0  0  1  0  0  0  0  0  0  0  0  0
    6.2769   -2.5527    3.7128 Br  0  0  0  0  0  0  0  0  0  0  0  0
    7.2437   -0.9679    5.9169 C   0  0  1  0  0  0  0  0  0  0  0  0
    7.2381   -0.5193    7.3833 C   0  0  1  0  0  0  0  0  0  0  0  0
    8.2832    0.5032    7.8095 C   0  0  0  0  0  0  0  0  0  0  0  0
    5.9274   -0.2994    8.1274 C   0  0  0  0  0  0  0  0  0  0  0  0
    7.6700   -1.9387    7.0064 C   0  0  1  0  0  0  0  0  0  0  0  0
    6.7855   -3.1225    7.3766 C   0  0  0  0  0  0  0  0  0  0  0  0
    9.1429   -2.3233    7.0608 C   0  0  0  0  0  0  0  0  0  0  0  0
    6.5735    0.6643    2.1813 C   0  0  0  0  0  0  0  0  0  0  0  0
    7.4581    1.3585    1.3579 C   0  0  0  0  0  0  0  0  0  0  0  0
    7.4711    1.0800    0.0206 O   0  0  0  0  0  0  0  0  0  0  0  0
    8.6490    0.4890   -0.5066 C   0  0  0  0  0  0  0  0  0  0  0  0
   10.4495    4.4754    0.6506 H   0  0  0  0  0  0  0  0  0  0  0  0
   10.6070    3.7591    2.2863 H   0  0  0  0  0  0  0  0  0  0  0  0
    9.2757    4.9113    1.9331 H   0  0  0  0  0  0  0  0  0  0  0  0
    8.7736    3.4556    3.7192 H   0  0  0  0  0  0  0  0  0  0  0  0
    7.2012    2.2113    5.1412 H   0  0  0  0  0  0  0  0  0  0  0  0
    4.5810   -0.0638    3.8550 H   0  0  0  0  0  0  0  0  0  0  0  0
    5.1668    0.8344    5.2589 H   0  0  0  0  0  0  0  0  0  0  0  0
    5.1697   -1.5343    5.6841 H   0  0  0  0  0  0  0  0  0  0  0  0
    8.0725   -0.5590    5.3291 H   0  0  0  0  0  0  0  0  0  0  0  0
    7.8884    1.5271    7.6945 H   0  0  0  0  0  0  0  0  0  0  0  0
    9.2085    0.4431    7.2214 H   0  0  0  0  0  0  0  0  0  0  0  0
    8.5501    0.3741    8.8728 H   0  0  0  0  0  0  0  0  0  0  0  0
    5.5639    0.7312    7.9759 H   0  0  0  0  0  0  0  0  0  0  0  0
    6.0771   -0.4332    9.2125 H   0  0  0  0  0  0  0  0  0  0  0  0
    5.1207   -0.9791    7.8256 H   0  0  0  0  0  0  0  0  0  0  0  0
    5.7096   -2.9179    7.3066 H   0  0  0  0  0  0  0  0  0  0  0  0
    6.9914   -3.4446    8.4116 H   0  0  0  0  0  0  0  0  0  0  0  0
    6.9954   -3.9756    6.7122 H   0  0  0  0  0  0  0  0  0  0  0  0
    9.8106   -1.5177    6.7270 H   0  0  0  0  0  0  0  0  0  0  0  0
    9.3284   -3.1918    6.4074 H   0  0  0  0  0  0  0  0  0  0  0  0
    9.4418   -2.6074    8.0845 H   0  0  0  0  0  0  0  0  0  0  0  0
    5.9597   -0.1088    1.7159 H   0  0  0  0  0  0  0  0  0  0  0  0
    8.4530    0.2892   -1.5697 H   0  0  0  0  0  0  0  0  0  0  0  0
    8.8755   -0.4674   -0.0005 H   0  0  0  0  0  0  0  0  0  0  0  0
    9.5190    1.1595   -0.4202 H   0  0  0  0  0  0  0  0  0  0  0  0
  1  2  1  0
  1 21  1  0
  1 22  1  0
  1 23  1  0
  2  3  1  0
  3  4  2  0
  3 18  1  0
  4  5  1  0
  4 24  1  0
  5  6  2  0
  5 25  1  0
  6  7  1  0
  6 17  1  0
  7  8  1  0
  7 26  1  0
  7 27  1  0
  8  9  1  0
  8 10  1  0
  8 28  1  1
 10 11  1  0
 10 14  1  0
 10 29  1  6
 11 12  1  6
 11 13  1  0
 11 14  1  0
 12 30  1  0
 12 31  1  0
 12 32  1  0
 13 33  1  0
 13 34  1  0
 13 35  1  0
 14 15  1  1
 14 16  1  0
 15 36  1  0
 15 37  1  0
 15 38  1  0
 16 39  1  0
 16 40  1  0
 16 41  1  0
 17 18  2  0
 17 42  1  0
 18 19  1  0
 19 20  1  0
 20 43  1  0
 20 44  1  0
 20 45  1  0
M  END

