
     RDKit          3D

 54 54  0  0  0  0  0  0  0  0999 V2000
    8.3239    7.4960   -3.8368 C   0  0  0  0  0  0  0  0  0  0  0  0
    6.9690    7.5412   -3.4092 O   0  0  0  0  0  0  0  0  0  0  0  0
    6.1881    6.6357   -4.1547 N   0  0  0  0  0  0  0  0  0  0  0  0
    5.4076    7.3054   -5.1785 C   0  0  0  0  0  0  0  0  0  0  0  0
    5.5665    5.6173   -3.3946 C   0  0  0  0  0  0  0  0  0  0  0  0
    4.7098    4.9139   -3.9115 O   0  0  0  0  0  0  0  0  0  0  0  0
    6.0347    5.4947   -2.1228 N   0  0  0  0  0  0  0  0  0  0  0  0
    5.7095    4.3880   -1.2077 C   0  0  1  0  0  0  0  0  0  0  0  0
    4.1907    4.3292   -0.9532 C   0  0  0  0  0  0  0  0  0  0  0  0
    6.1901    3.0524   -1.8052 C   0  0  0  0  0  0  0  0  0  0  0  0
    6.4055    4.6921    0.1552 C   0  0  0  0  0  0  0  0  0  0  0  0
    7.8979    4.9444    0.1393 C   0  0  0  0  0  0  0  0  0  0  0  0
    8.4072    6.2537    0.1016 C   0  0  0  0  0  0  0  0  0  0  0  0
    9.7818    6.5002    0.0852 C   0  0  0  0  0  0  0  0  0  0  0  0
   10.6799    5.4307    0.1059 C   0  0  0  0  0  0  0  0  0  0  0  0
   12.0211    5.7536    0.0183 O   0  0  0  0  0  0  0  0  0  0  0  0
   12.9772    5.0979    0.7685 C   0  0  0  0  0  0  0  0  0  0  0  0
   12.7369    4.2177    1.5623 O   0  0  0  0  0  0  0  0  0  0  0  0
   14.1925    5.6123    0.4583 N   0  0  0  0  0  0  0  0  0  0  0  0
   15.4768    5.1894    1.0579 C   0  0  1  0  0  0  0  0  0  0  0  0
   15.7318    3.7001    0.7618 C   0  0  0  0  0  0  0  0  0  0  0  0
   16.5626    6.0493    0.3946 C   0  0  0  0  0  0  0  0  0  0  0  0
   15.4595    5.4419    2.5768 C   0  0  0  0  0  0  0  0  0  0  0  0
   10.2040    4.1156    0.1541 C   0  0  0  0  0  0  0  0  0  0  0  0
    8.8266    3.8898    0.1755 C   0  0  0  0  0  0  0  0  0  0  0  0
    8.8578    8.2368   -3.2238 H   0  0  0  0  0  0  0  0  0  0  0  0
    8.4209    7.7703   -4.9016 H   0  0  0  0  0  0  0  0  0  0  0  0
    8.7655    6.4978   -3.6769 H   0  0  0  0  0  0  0  0  0  0  0  0
    6.0763    7.7393   -5.9373 H   0  0  0  0  0  0  0  0  0  0  0  0
    4.7762    8.1075   -4.7535 H   0  0  0  0  0  0  0  0  0  0  0  0
    4.7686    6.5507   -5.6518 H   0  0  0  0  0  0  0  0  0  0  0  0
    6.7339    6.1712   -1.8413 H   0  0  0  0  0  0  0  0  0  0  0  0
    3.6547    4.1385   -1.8916 H   0  0  0  0  0  0  0  0  0  0  0  0
    3.8318    5.2833   -0.5358 H   0  0  0  0  0  0  0  0  0  0  0  0
    3.9539    3.5275   -0.2357 H   0  0  0  0  0  0  0  0  0  0  0  0
    5.6768    2.8707   -2.7599 H   0  0  0  0  0  0  0  0  0  0  0  0
    5.9654    2.2160   -1.1241 H   0  0  0  0  0  0  0  0  0  0  0  0
    7.2739    3.0684   -1.9934 H   0  0  0  0  0  0  0  0  0  0  0  0
    6.1831    3.8423    0.8196 H   0  0  0  0  0  0  0  0  0  0  0  0
    5.9033    5.5699    0.5942 H   0  0  0  0  0  0  0  0  0  0  0  0
    7.7181    7.1039    0.1082 H   0  0  0  0  0  0  0  0  0  0  0  0
   10.1734    7.5193    0.0643 H   0  0  0  0  0  0  0  0  0  0  0  0
   14.1991    6.3628   -0.2220 H   0  0  0  0  0  0  0  0  0  0  0  0
   15.7584    3.5194   -0.3246 H   0  0  0  0  0  0  0  0  0  0  0  0
   14.9395    3.0779    1.2000 H   0  0  0  0  0  0  0  0  0  0  0  0
   16.6980    3.3862    1.1871 H   0  0  0  0  0  0  0  0  0  0  0  0
   16.5866    5.8888   -0.6958 H   0  0  0  0  0  0  0  0  0  0  0  0
   17.5527    5.7874    0.7956 H   0  0  0  0  0  0  0  0  0  0  0  0
   16.3940    7.1217    0.5871 H   0  0  0  0  0  0  0  0  0  0  0  0
   14.6584    4.8622    3.0555 H   0  0  0  0  0  0  0  0  0  0  0  0
   15.2940    6.5098    2.7911 H   0  0  0  0  0  0  0  0  0  0  0  0
   16.4211    5.1459    3.0249 H   0  0  0  0  0  0  0  0  0  0  0  0
   10.9020    3.2814    0.1957 H   0  0  0  0  0  0  0  0  0  0  0  0
    8.4670    2.8595    0.2326 H   0  0  0  0  0  0  0  0  0  0  0  0
  1  2  1  0
  1 26  1  0
  1 27  1  0
  1 28  1  0
  2  3  1  0
  3  4  1  0
  3  5  1  0
  4 29  1  0
  4 30  1  0
  4 31  1  0
  5  6  2  0
  5  7  1  0
  8  7  1  6
  7 32  1  0
  8  9  1  0
  8 10  1  0
  8 11  1  0
  9 33  1  0
  9 34  1  0
  9 35  1  0
 10 36  1  0
 10 37  1  0
 10 38  1  0
 11 12  1  0
 11 39  1  0
 11 40  1  0
 12 13  2  0
 12 25  1  0
 13 14  1  0
 13 41  1  0
 14 15  2  0
 14 42  1  0
 15 16  1  0
 15 24  1  0
 16 17  1  0
 17 18  2  0
 17 19  1  0
 20 19  1  6
 19 43  1  0
 20 21  1  0
 20 22  1  0
 20 23  1  0
 21 44  1  0
 21 45  1  0
 21 46  1  0
 22 47  1  0
 22 48  1  0
 22 49  1  0
 23 50  1  0
 23 51  1  0
 23 52  1  0
 24 25  2  0
 24 53  1  0
 25 54  1  0
M  END

