
     RDKit          3D

 44 45  0  0  0  0  0  0  0  0999 V2000
    3.4895   -0.1149    0.8043 C   0  0  0  0  0  0  0  0  0  0  0  0
    2.4739    0.1368   -0.3085 C   0  0  0  0  0  0  0  0  0  0  0  0
    2.9184    1.0881   -1.4586 C   0  0  1  0  0  0  0  0  0  0  0  0
    4.0712    0.4258   -2.2244 C   0  0  0  0  0  0  0  0  0  0  0  0
    1.7202    1.2774   -2.4356 C   0  0  0  0  0  0  0  0  0  0  0  0
    0.5904    2.0159   -1.8905 N   0  0  0  0  0  0  0  0  0  0  0  0
    0.9333    3.3128   -1.2753 C   0  0  2  0  0  0  0  0  0  0  0  0
   -0.2676    3.7712   -0.4398 C   0  0  0  0  0  0  0  0  0  0  0  0
    1.1729    4.3399   -2.3980 C   0  0  0  0  0  0  0  0  0  0  0  0
    2.1700    3.1597   -0.3386 C   0  0  0  0  0  0  0  0  0  0  0  0
    3.2990    2.4135   -0.8962 N   0  0  0  0  0  0  0  0  0  0  0  0
    4.3132    3.2356   -1.5351 C   0  0  0  0  0  0  0  0  0  0  0  0
    5.2977    3.8950   -0.5704 C   0  0  0  0  0  0  0  0  0  0  0  0
    5.3424    3.5454    0.7871 C   0  0  0  0  0  0  0  0  0  0  0  0
    6.2435    4.1272    1.6806 C   0  0  0  0  0  0  0  0  0  0  0  0
    7.1295    5.0873    1.2027 C   0  0  0  0  0  0  0  0  0  0  0  0
    8.0030    5.6616    2.0424 F   0  0  0  0  0  0  0  0  0  0  0  0
    7.1337    5.4692   -0.1363 C   0  0  0  0  0  0  0  0  0  0  0  0
    6.2173    4.8675   -1.0017 C   0  0  0  0  0  0  0  0  0  0  0  0
    6.2714    5.4067   -2.8416 Br  0  0  0  0  0  0  0  0  0  0  0  0
    3.0843   -0.8233    1.5445 H   0  0  0  0  0  0  0  0  0  0  0  0
    3.7418    0.8143    1.3356 H   0  0  0  0  0  0  0  0  0  0  0  0
    4.4295   -0.5432    0.4223 H   0  0  0  0  0  0  0  0  0  0  0  0
    1.5444    0.5189    0.1438 H   0  0  0  0  0  0  0  0  0  0  0  0
    2.1938   -0.8239   -0.7745 H   0  0  0  0  0  0  0  0  0  0  0  0
    3.7949   -0.6106   -2.4721 H   0  0  0  0  0  0  0  0  0  0  0  0
    4.9987    0.3938   -1.6332 H   0  0  0  0  0  0  0  0  0  0  0  0
    4.2894    0.9346   -3.1755 H   0  0  0  0  0  0  0  0  0  0  0  0
    1.3570    0.2953   -2.7833 H   0  0  0  0  0  0  0  0  0  0  0  0
    2.0910    1.8037   -3.3328 H   0  0  0  0  0  0  0  0  0  0  0  0
    0.0832    1.4407   -1.2206 H   0  0  0  0  0  0  0  0  0  0  0  0
   -1.1661    3.8477   -1.0715 H   0  0  0  0  0  0  0  0  0  0  0  0
   -0.0796    4.7553    0.0175 H   0  0  0  0  0  0  0  0  0  0  0  0
   -0.4824    3.0592    0.3754 H   0  0  0  0  0  0  0  0  0  0  0  0
    0.2542    4.4568   -2.9930 H   0  0  0  0  0  0  0  0  0  0  0  0
    1.9705    4.0294   -3.0877 H   0  0  0  0  0  0  0  0  0  0  0  0
    1.4521    5.3221   -1.9849 H   0  0  0  0  0  0  0  0  0  0  0  0
    1.8260    2.6573    0.5840 H   0  0  0  0  0  0  0  0  0  0  0  0
    2.5307    4.1513   -0.0219 H   0  0  0  0  0  0  0  0  0  0  0  0
    3.8834    4.0378   -2.1625 H   0  0  0  0  0  0  0  0  0  0  0  0
    4.9043    2.6279   -2.2323 H   0  0  0  0  0  0  0  0  0  0  0  0
    4.6412    2.7851    1.1322 H   0  0  0  0  0  0  0  0  0  0  0  0
    6.2677    3.8473    2.7353 H   0  0  0  0  0  0  0  0  0  0  0  0
    7.8426    6.2200   -0.4861 H   0  0  0  0  0  0  0  0  0  0  0  0
  1  2  1  0
  1 21  1  0
  1 22  1  0
  1 23  1  0
  3  2  1  1
  2 24  1  0
  2 25  1  0
  3  4  1  0
  3  5  1  0
  3 11  1  0
  4 26  1  0
  4 27  1  0
  4 28  1  0
  5  6  1  0
  5 29  1  0
  5 30  1  0
  6  7  1  0
  6 31  1  0
  7  8  1  1
  7  9  1  0
  7 10  1  0
  8 32  1  0
  8 33  1  0
  8 34  1  0
  9 35  1  0
  9 36  1  0
  9 37  1  0
 10 11  1  0
 10 38  1  0
 10 39  1  0
 11 12  1  0
 12 13  1  0
 12 40  1  0
 12 41  1  0
 13 14  2  0
 13 19  1  0
 14 15  1  0
 14 42  1  0
 15 16  2  0
 15 43  1  0
 16 17  1  0
 16 18  1  0
 18 19  2  0
 18 44  1  0
 19 20  1  0
M  END

