
     RDKit          3D

 38 40  0  0  0  0  0  0  0  0999 V2000
    1.1533    2.4917    0.1321 C   0  0  0  0  0  0  0  0  0  0  0  0
    2.5740    2.3871    0.2369 O   0  0  0  0  0  0  0  0  0  0  0  0
    3.1760    1.5580   -0.6330 C   0  0  0  0  0  0  0  0  0  0  0  0
    2.5780    0.9218   -1.4691 O   0  0  0  0  0  0  0  0  0  0  0  0
    4.6602    1.5140   -0.4474 C   0  0  0  0  0  0  0  0  0  0  0  0
    5.4033    0.6899   -1.3049 C   0  0  0  0  0  0  0  0  0  0  0  0
    6.7889    0.6119   -1.1822 C   0  0  0  0  0  0  0  0  0  0  0  0
    7.4338    1.3499   -0.1813 C   0  0  0  0  0  0  0  0  0  0  0  0
    8.8528    1.2932   -0.0417 N   0  0  0  0  0  0  0  0  0  0  0  0
    9.5452    2.4610    0.0319 N   0  0  0  0  0  0  0  0  0  0  0  0
   10.7900    2.1570    0.1493 N   0  0  0  0  0  0  0  0  0  0  0  0
   10.9449    0.8045    0.1501 C   0  0  0  0  0  0  0  0  0  0  0  0
   12.3118    0.2313    0.2700 C   0  0  0  0  0  0  0  0  0  0  0  0
   12.5723   -0.9448    0.1985 O   0  0  0  0  0  0  0  0  0  0  0  0
   13.2557    1.1650    0.4466 O   0  0  0  0  0  0  0  0  0  0  0  0
    9.6899    0.2134    0.0359 C   0  0  0  0  0  0  0  0  0  0  0  0
    9.2433   -1.2233    0.1173 C   0  0  1  0  0  0  0  0  0  0  0  0
    9.7670   -2.1397   -1.0099 C   0  0  0  0  0  0  0  0  0  0  0  0
    9.8672   -3.4883   -0.2872 C   0  0  0  0  0  0  0  0  0  0  0  0
   10.3213   -3.0582    1.1091 C   0  0  0  0  0  0  0  0  0  0  0  0
    9.7041   -1.7859    1.3386 O   0  0  0  0  0  0  0  0  0  0  0  0
    6.7042    2.1831    0.6752 C   0  0  0  0  0  0  0  0  0  0  0  0
    5.3200    2.2653    0.5378 C   0  0  0  0  0  0  0  0  0  0  0  0
    0.8402    3.1937    0.9143 H   0  0  0  0  0  0  0  0  0  0  0  0
    0.6780    1.5109    0.2841 H   0  0  0  0  0  0  0  0  0  0  0  0
    0.8627    2.8690   -0.8599 H   0  0  0  0  0  0  0  0  0  0  0  0
    4.8753    0.1252   -2.0753 H   0  0  0  0  0  0  0  0  0  0  0  0
    7.3709    0.0004   -1.8737 H   0  0  0  0  0  0  0  0  0  0  0  0
   12.8188    2.0398    0.4478 H   0  0  0  0  0  0  0  0  0  0  0  0
    8.1382   -1.2352    0.1228 H   0  0  0  0  0  0  0  0  0  0  0  0
   10.7646   -1.8084   -1.3293 H   0  0  0  0  0  0  0  0  0  0  0  0
    9.0982   -2.1515   -1.8837 H   0  0  0  0  0  0  0  0  0  0  0  0
   10.5723   -4.1800   -0.7713 H   0  0  0  0  0  0  0  0  0  0  0  0
    8.8809   -3.9798   -0.2424 H   0  0  0  0  0  0  0  0  0  0  0  0
   11.4164   -2.9456    1.1550 H   0  0  0  0  0  0  0  0  0  0  0  0
    9.9937   -3.7469    1.9043 H   0  0  0  0  0  0  0  0  0  0  0  0
    7.2300    2.7592    1.4373 H   0  0  0  0  0  0  0  0  0  0  0  0
    4.7408    2.9093    1.2000 H   0  0  0  0  0  0  0  0  0  0  0  0
  1  2  1  0
  1 24  1  0
  1 25  1  0
  1 26  1  0
  2  3  1  0
  3  4  2  0
  3  5  1  0
  5  6  2  0
  5 23  1  0
  6  7  1  0
  6 27  1  0
  7  8  2  0
  7 28  1  0
  8  9  1  0
  8 22  1  0
  9 10  1  0
  9 16  1  0
 10 11  2  0
 11 12  1  0
 12 13  1  0
 12 16  2  0
 13 14  2  0
 13 15  1  0
 15 29  1  0
 16 17  1  0
 17 18  1  0
 17 21  1  0
 17 30  1  1
 18 19  1  0
 18 31  1  0
 18 32  1  0
 19 20  1  0
 19 33  1  0
 19 34  1  0
 20 21  1  0
 20 35  1  0
 20 36  1  0
 22 23  2  0
 22 37  1  0
 23 38  1  0
M  END

