
     RDKit          3D

 48 50  0  0  0  0  0  0  0  0999 V2000
    2.0620    2.1847   -1.0002 C   0  0  0  0  0  0  0  0  0  0  0  0
    2.0779    1.9119    0.5074 C   0  0  0  0  0  0  0  0  0  0  0  0
    3.0554    0.9107    0.9312 N   0  0  0  0  0  0  0  0  0  0  0  0
    2.6879   -0.5125    0.9474 C   0  0  0  0  0  0  0  0  0  0  0  0
    1.1943   -0.8171    0.9611 C   0  0  0  0  0  0  0  0  0  0  0  0
    4.3820    1.2459    1.0805 C   0  0  0  0  0  0  0  0  0  0  0  0
    4.8262    2.6072    1.0168 C   0  0  0  0  0  0  0  0  0  0  0  0
    6.1532    2.9368    1.2025 C   0  0  0  0  0  0  0  0  0  0  0  0
    7.1341    1.9516    1.4548 C   0  0  0  0  0  0  0  0  0  0  0  0
    8.5259    2.1965    1.6161 C   0  0  0  0  0  0  0  0  0  0  0  0
    9.4119    1.1724    1.8556 C   0  0  0  0  0  0  0  0  0  0  0  0
   10.8130    1.4571    1.8902 C   0  0  0  0  0  0  0  0  0  0  0  0
   11.9362    1.7518    1.8587 N   0  0  0  0  0  0  0  0  0  0  0  0
    8.9239   -0.2102    1.9785 C   0  0  0  0  0  0  0  0  0  0  0  0
    9.5617   -1.2786    2.2360 N   0  0  0  0  0  0  0  0  0  0  0  0
   10.8112   -1.3838    2.8414 C   0  0  0  0  0  0  0  0  0  0  0  0
   11.1030   -0.7614    3.8480 O   0  0  0  0  0  0  0  0  0  0  0  0
   11.7296   -2.3925    2.2267 C   0  0  0  0  0  0  0  0  0  0  0  0
   13.0349   -2.5014    2.7276 C   0  0  0  0  0  0  0  0  0  0  0  0
   13.9282   -3.4185    2.1754 C   0  0  0  0  0  0  0  0  0  0  0  0
   13.5455   -4.2549    1.1138 C   0  0  0  0  0  0  0  0  0  0  0  0
   14.5050   -5.2544    0.5164 C   0  0  0  0  0  0  0  0  0  0  0  0
   12.2335   -4.1414    0.6211 C   0  0  0  0  0  0  0  0  0  0  0  0
   11.3360   -3.2252    1.1666 C   0  0  0  0  0  0  0  0  0  0  0  0
    7.5789   -0.3932    1.7378 O   0  0  0  0  0  0  0  0  0  0  0  0
    6.6971    0.6098    1.5038 C   0  0  0  0  0  0  0  0  0  0  0  0
    5.3678    0.2528    1.3127 C   0  0  0  0  0  0  0  0  0  0  0  0
    1.3074    2.9501   -1.2434 H   0  0  0  0  0  0  0  0  0  0  0  0
    1.8138    1.2739   -1.5680 H   0  0  0  0  0  0  0  0  0  0  0  0
    3.0395    2.5452   -1.3558 H   0  0  0  0  0  0  0  0  0  0  0  0
    1.0845    1.5804    0.8333 H   0  0  0  0  0  0  0  0  0  0  0  0
    2.2601    2.8437    1.0626 H   0  0  0  0  0  0  0  0  0  0  0  0
    3.1316   -0.9655    1.8490 H   0  0  0  0  0  0  0  0  0  0  0  0
    3.1546   -1.0288    0.0856 H   0  0  0  0  0  0  0  0  0  0  0  0
    0.6881   -0.3734    1.8324 H   0  0  0  0  0  0  0  0  0  0  0  0
    1.0661   -1.9083    1.0270 H   0  0  0  0  0  0  0  0  0  0  0  0
    0.6777   -0.4838    0.0484 H   0  0  0  0  0  0  0  0  0  0  0  0
    4.1189    3.4093    0.8195 H   0  0  0  0  0  0  0  0  0  0  0  0
    6.4598    3.9847    1.1484 H   0  0  0  0  0  0  0  0  0  0  0  0
    8.9036    3.2182    1.5268 H   0  0  0  0  0  0  0  0  0  0  0  0
   13.3301   -1.8484    3.5511 H   0  0  0  0  0  0  0  0  0  0  0  0
   14.9448   -3.4877    2.5729 H   0  0  0  0  0  0  0  0  0  0  0  0
   15.5051   -5.1770    0.9676 H   0  0  0  0  0  0  0  0  0  0  0  0
   14.6114   -5.1066   -0.5713 H   0  0  0  0  0  0  0  0  0  0  0  0
   14.1481   -6.2878    0.6652 H   0  0  0  0  0  0  0  0  0  0  0  0
   11.9117   -4.7856   -0.2029 H   0  0  0  0  0  0  0  0  0  0  0  0
   10.3164   -3.1514    0.7837 H   0  0  0  0  0  0  0  0  0  0  0  0
    5.1333   -0.8070    1.3574 H   0  0  0  0  0  0  0  0  0  0  0  0
  1  2  1  0
  1 28  1  0
  1 29  1  0
  1 30  1  0
  2  3  1  0
  2 31  1  0
  2 32  1  0
  3  4  1  0
  3  6  1  0
  4  5  1  0
  4 33  1  0
  4 34  1  0
  5 35  1  0
  5 36  1  0
  5 37  1  0
  6  7  2  0
  6 27  1  0
  7  8  1  0
  7 38  1  0
  8  9  2  0
  8 39  1  0
  9 10  1  0
  9 26  1  0
 10 11  2  0
 10 40  1  0
 11 12  1  0
 11 14  1  0
 12 13  3  0
 14 15  2  0
 14 25  1  0
 15 16  1  0
 16 17  2  0
 16 18  1  0
 18 19  2  0
 18 24  1  0
 19 20  1  0
 19 41  1  0
 20 21  2  0
 20 42  1  0
 21 22  1  0
 21 23  1  0
 22 43  1  0
 22 44  1  0
 22 45  1  0
 23 24  2  0
 23 46  1  0
 24 47  1  0
 25 26  1  0
 26 27  2  0
 27 48  1  0
M  END

