
     RDKit          3D

 60 62  0  0  0  0  0  0  0  0999 V2000
    1.5355    0.1662    1.0188 C   0  0  0  0  0  0  0  0  0  0  0  0
    2.6491   -0.2781    1.7621 O   0  0  0  0  0  0  0  0  0  0  0  0
    3.8549   -0.3640    1.0567 C   0  0  0  0  0  0  0  0  0  0  0  0
    4.5912    0.9705    0.8266 C   0  0  0  0  0  0  0  0  0  0  0  0
    4.9051    1.7085    2.0535 N   0  0  0  0  0  0  0  0  0  0  0  0
    3.9379    2.6005    2.4871 C   0  0  0  0  0  0  0  0  0  0  0  0
    2.9591    2.8656    1.7961 O   0  0  0  0  0  0  0  0  0  0  0  0
    4.0877    3.2552    3.8330 C   0  0  1  0  0  0  0  0  0  0  0  0
    3.5532    4.6727    3.9673 C   0  0  0  0  0  0  0  0  0  0  0  0
    2.7972    3.5442    4.5821 C   0  0  0  0  0  0  0  0  0  0  0  0
    6.2167    1.5939    2.7215 C   0  0  1  0  0  0  0  0  0  0  0  0
    7.0291    0.3340    2.3764 C   0  0  0  0  0  0  0  0  0  0  0  0
    7.9035    0.4413    1.1493 C   0  0  0  0  0  0  0  0  0  0  0  0
    8.5659   -0.8478    0.7342 C   0  0  0  0  0  0  0  0  0  0  0  0
    8.6929   -1.7658    1.5325 O   0  0  0  0  0  0  0  0  0  0  0  0
    9.0050   -0.9337   -0.5580 N   0  0  0  0  0  0  0  0  0  0  0  0
    9.7497   -2.0843   -1.0496 C   0  0  0  0  0  0  0  0  0  0  0  0
    8.8507   -3.1660   -1.6520 C   0  0  0  0  0  0  0  0  0  0  0  0
    8.0777   -2.6858   -2.7332 O   0  0  0  0  0  0  0  0  0  0  0  0
    8.1792    1.6206    0.5670 C   0  0  0  0  0  0  0  0  0  0  0  0
    7.5435    2.9112    1.0041 C   0  0  2  0  0  0  0  0  0  0  0  0
    8.5298    3.9388    0.8556 O   0  0  0  0  0  0  0  0  0  0  0  0
    8.1980    5.2281    0.5696 C   0  0  0  0  0  0  0  0  0  0  0  0
    6.8833    5.7028    0.4359 C   0  0  0  0  0  0  0  0  0  0  0  0
    6.6433    7.0450    0.1266 C   0  0  0  0  0  0  0  0  0  0  0  0
    7.7029    7.9349   -0.0468 C   0  0  0  0  0  0  0  0  0  0  0  0
    9.0167    7.4753    0.0933 C   0  0  0  0  0  0  0  0  0  0  0  0
    9.2633    6.1366    0.3986 C   0  0  0  0  0  0  0  0  0  0  0  0
   11.2666    5.4631    0.6111 I   0  0  0  0  0  0  0  0  0  0  0  0
    7.0773    2.8515    2.4697 C   0  0  2  0  0  0  0  0  0  0  0  0
    8.1801    2.7826    3.3408 O   0  0  0  0  0  0  0  0  0  0  0  0
    0.6481    0.0359    1.6558 H   0  0  0  0  0  0  0  0  0  0  0  0
    1.3971   -0.4390    0.0997 H   0  0  0  0  0  0  0  0  0  0  0  0
    1.6169    1.2331    0.7503 H   0  0  0  0  0  0  0  0  0  0  0  0
    3.7016   -0.8354    0.0611 H   0  0  0  0  0  0  0  0  0  0  0  0
    4.4958   -1.0441    1.6403 H   0  0  0  0  0  0  0  0  0  0  0  0
    3.9765    1.6282    0.1970 H   0  0  0  0  0  0  0  0  0  0  0  0
    5.5164    0.7568    0.2737 H   0  0  0  0  0  0  0  0  0  0  0  0
    4.9502    3.0067    4.4496 H   0  0  0  0  0  0  0  0  0  0  0  0
    3.1376    5.1113    3.0566 H   0  0  0  0  0  0  0  0  0  0  0  0
    4.1088    5.3577    4.6136 H   0  0  0  0  0  0  0  0  0  0  0  0
    1.8777    3.2272    4.0853 H   0  0  0  0  0  0  0  0  0  0  0  0
    2.8178    3.4203    5.6681 H   0  0  0  0  0  0  0  0  0  0  0  0
    6.0447    1.5520    3.8052 H   0  0  0  0  0  0  0  0  0  0  0  0
    6.3883   -0.5561    2.3188 H   0  0  0  0  0  0  0  0  0  0  0  0
    7.7075    0.1322    3.2202 H   0  0  0  0  0  0  0  0  0  0  0  0
    8.8104   -0.1742   -1.1968 H   0  0  0  0  0  0  0  0  0  0  0  0
   10.3214   -2.5062   -0.2091 H   0  0  0  0  0  0  0  0  0  0  0  0
   10.4591   -1.7306   -1.8148 H   0  0  0  0  0  0  0  0  0  0  0  0
    8.2187   -3.5996   -0.8537 H   0  0  0  0  0  0  0  0  0  0  0  0
    9.4853   -3.9768   -2.0459 H   0  0  0  0  0  0  0  0  0  0  0  0
    7.3812   -2.1260   -2.3670 H   0  0  0  0  0  0  0  0  0  0  0  0
    8.8945    1.7069   -0.2563 H   0  0  0  0  0  0  0  0  0  0  0  0
    6.6814    3.1281    0.3487 H   0  0  0  0  0  0  0  0  0  0  0  0
    6.0349    5.0335    0.5790 H   0  0  0  0  0  0  0  0  0  0  0  0
    5.6113    7.3899    0.0273 H   0  0  0  0  0  0  0  0  0  0  0  0
    7.5168    8.9840   -0.2860 H   0  0  0  0  0  0  0  0  0  0  0  0
    9.8555    8.1615   -0.0365 H   0  0  0  0  0  0  0  0  0  0  0  0
    6.4690    3.7508    2.6809 H   0  0  0  0  0  0  0  0  0  0  0  0
    8.8685    3.3720    2.9977 H   0  0  0  0  0  0  0  0  0  0  0  0
  1  2  1  0
  1 32  1  0
  1 33  1  0
  1 34  1  0
  2  3  1  0
  3  4  1  0
  3 35  1  0
  3 36  1  0
  4  5  1  0
  4 37  1  0
  4 38  1  0
  5  6  1  0
  5 11  1  0
  6  7  2  0
  6  8  1  0
  8  9  1  0
  8 10  1  0
  8 39  1  1
  9 10  1  0
  9 40  1  0
  9 41  1  0
 10 42  1  0
 10 43  1  0
 11 12  1  0
 11 30  1  0
 11 44  1  1
 12 13  1  0
 12 45  1  0
 12 46  1  0
 13 14  1  0
 13 20  2  0
 14 15  2  0
 14 16  1  0
 16 17  1  0
 16 47  1  0
 17 18  1  0
 17 48  1  0
 17 49  1  0
 18 19  1  0
 18 50  1  0
 18 51  1  0
 19 52  1  0
 20 21  1  0
 20 53  1  0
 21 22  1  0
 21 30  1  0
 21 54  1  6
 22 23  1  0
 23 24  2  0
 23 28  1  0
 24 25  1  0
 24 55  1  0
 25 26  2  0
 25 56  1  0
 26 27  1  0
 26 57  1  0
 27 28  2  0
 27 58  1  0
 28 29  1  0
 30 31  1  0
 30 59  1  1
 31 60  1  0
M  END

