
     RDKit          3D

 34 36  0  0  0  0  0  0  0  0999 V2000
    0.9564    0.3148    0.6170 N   0  0  0  0  0  0  0  0  0  0  0  0
    2.2817    0.2258    0.2319 C   0  0  0  0  0  0  0  0  0  0  0  0
    2.9827    1.3521   -0.2436 C   0  0  0  0  0  0  0  0  0  0  0  0
    4.3284    1.2585   -0.5834 C   0  0  0  0  0  0  0  0  0  0  0  0
    5.0492    0.0511   -0.4720 C   0  0  0  0  0  0  0  0  0  0  0  0
    6.4618    0.0199   -0.8476 C   0  0  0  0  0  0  0  0  0  0  0  0
    7.3056   -1.0373   -0.8047 C   0  0  0  0  0  0  0  0  0  0  0  0
    8.7220   -1.0572   -1.1845 C   0  0  0  0  0  0  0  0  0  0  0  0
    9.4400   -2.2886   -1.0590 C   0  0  0  0  0  0  0  0  0  0  0  0
   10.7703   -2.3893   -1.3942 C   0  0  0  0  0  0  0  0  0  0  0  0
   11.4900   -1.2636   -1.8827 C   0  0  0  0  0  0  0  0  0  0  0  0
   12.8649   -1.3258   -2.2399 C   0  0  0  0  0  0  0  0  0  0  0  0
   13.5254   -0.2093   -2.7100 C   0  0  0  0  0  0  0  0  0  0  0  0
   12.8356    1.0238   -2.8438 C   0  0  0  0  0  0  0  0  0  0  0  0
   11.5024    1.1169   -2.5059 C   0  0  0  0  0  0  0  0  0  0  0  0
   10.7888   -0.0168   -2.0169 C   0  0  0  0  0  0  0  0  0  0  0  0
    9.4180    0.0505   -1.6621 C   0  0  0  0  0  0  0  0  0  0  0  0
    4.3350   -1.0703    0.0051 C   0  0  0  0  0  0  0  0  0  0  0  0
    2.9922   -0.9901    0.3480 C   0  0  0  0  0  0  0  0  0  0  0  0
    0.4220    1.0987    0.2625 H   0  0  0  0  0  0  0  0  0  0  0  0
    0.4299   -0.5486    0.6709 H   0  0  0  0  0  0  0  0  0  0  0  0
    2.4614    2.3086   -0.3429 H   0  0  0  0  0  0  0  0  0  0  0  0
    4.8438    2.1507   -0.9508 H   0  0  0  0  0  0  0  0  0  0  0  0
    6.8516    0.9812   -1.2001 H   0  0  0  0  0  0  0  0  0  0  0  0
    6.9210   -1.9999   -0.4517 H   0  0  0  0  0  0  0  0  0  0  0  0
    8.9078   -3.1680   -0.6854 H   0  0  0  0  0  0  0  0  0  0  0  0
   11.2929   -3.3441   -1.2875 H   0  0  0  0  0  0  0  0  0  0  0  0
   13.3929   -2.2779   -2.1354 H   0  0  0  0  0  0  0  0  0  0  0  0
   14.5824   -0.2703   -2.9812 H   0  0  0  0  0  0  0  0  0  0  0  0
   13.3681    1.9024   -3.2171 H   0  0  0  0  0  0  0  0  0  0  0  0
   10.9714    2.0674   -2.6092 H   0  0  0  0  0  0  0  0  0  0  0  0
    8.9103    1.0116   -1.7746 H   0  0  0  0  0  0  0  0  0  0  0  0
    4.8410   -2.0327    0.1100 H   0  0  0  0  0  0  0  0  0  0  0  0
    2.4733   -1.8798    0.7167 H   0  0  0  0  0  0  0  0  0  0  0  0
  1  2  1  0
  1 20  1  0
  1 21  1  0
  2  3  2  0
  2 19  1  0
  3  4  1  0
  3 22  1  0
  4  5  2  0
  4 23  1  0
  5  6  1  0
  5 18  1  0
  6  7  2  0
  6 24  1  0
  7  8  1  0
  7 25  1  0
  8  9  2  0
  8 17  1  0
  9 10  1  0
  9 26  1  0
 10 11  2  0
 10 27  1  0
 11 12  1  0
 11 16  1  0
 12 13  2  0
 12 28  1  0
 13 14  1  0
 13 29  1  0
 14 15  2  0
 14 30  1  0
 15 16  1  0
 15 31  1  0
 16 17  2  0
 17 32  1  0
 18 19  2  0
 18 33  1  0
 19 34  1  0
M  END

