
     RDKit          3D

 32 34  0  0  0  0  0  0  0  0999 V2000
    1.5721    0.1981    0.6592 N   0  0  0  0  0  0  0  0  0  0  0  0
    2.7036    0.1625    0.3997 C   0  0  0  0  0  0  0  0  0  0  0  0
    4.1017    0.1141    0.0788 C   0  0  0  0  0  0  0  0  0  0  0  0
    4.8654    1.2978    0.0438 C   0  0  0  0  0  0  0  0  0  0  0  0
    6.2197    1.2549   -0.2665 C   0  0  0  0  0  0  0  0  0  0  0  0
    6.8238    0.0197   -0.5457 C   0  0  0  0  0  0  0  0  0  0  0  0
    8.2019   -0.0320   -0.8622 N   0  0  0  0  0  0  0  0  0  0  0  0
    8.9526    1.0449   -0.9116 N   0  0  0  0  0  0  0  0  0  0  0  0
   10.1699    0.5957   -1.2351 C   0  0  0  0  0  0  0  0  0  0  0  0
   11.2788    1.4759   -1.3762 C   0  0  0  0  0  0  0  0  0  0  0  0
   12.1967    2.1782   -1.4950 N   0  0  0  0  0  0  0  0  0  0  0  0
   10.0925   -0.8394   -1.3785 C   0  0  0  0  0  0  0  0  0  0  0  0
   11.0469   -1.7424   -1.6913 N   0  0  0  0  0  0  0  0  0  0  0  0
   12.4434   -1.4227   -1.9995 C   0  0  0  0  0  0  0  0  0  0  0  0
   12.9848   -2.7476   -2.5532 C   0  0  0  0  0  0  0  0  0  0  0  0
   12.1625   -3.8084   -1.8062 C   0  0  0  0  0  0  0  0  0  0  0  0
   10.7654   -3.1806   -1.7223 C   0  0  0  0  0  0  0  0  0  0  0  0
    8.8269   -1.1918   -1.1340 N   0  0  0  0  0  0  0  0  0  0  0  0
    6.0785   -1.1675   -0.5157 C   0  0  0  0  0  0  0  0  0  0  0  0
    4.7236   -1.1167   -0.2043 C   0  0  0  0  0  0  0  0  0  0  0  0
    4.3883    2.2548    0.2624 H   0  0  0  0  0  0  0  0  0  0  0  0
    6.8193    2.1640   -0.2964 H   0  0  0  0  0  0  0  0  0  0  0  0
   12.9907   -1.1097   -1.0904 H   0  0  0  0  0  0  0  0  0  0  0  0
   12.5181   -0.5983   -2.7254 H   0  0  0  0  0  0  0  0  0  0  0  0
   14.0697   -2.8492   -2.4056 H   0  0  0  0  0  0  0  0  0  0  0  0
   12.7880   -2.8086   -3.6365 H   0  0  0  0  0  0  0  0  0  0  0  0
   12.5688   -3.9593   -0.7922 H   0  0  0  0  0  0  0  0  0  0  0  0
   12.1540   -4.7860   -2.3099 H   0  0  0  0  0  0  0  0  0  0  0  0
   10.2002   -3.4859   -0.8273 H   0  0  0  0  0  0  0  0  0  0  0  0
   10.1420   -3.4354   -2.6001 H   0  0  0  0  0  0  0  0  0  0  0  0
    6.5723   -2.1125   -0.7374 H   0  0  0  0  0  0  0  0  0  0  0  0
    4.1366   -2.0365   -0.1788 H   0  0  0  0  0  0  0  0  0  0  0  0
  1  2  3  0
  2  3  1  0
  3  4  2  0
  3 20  1  0
  4  5  1  0
  4 21  1  0
  5  6  2  0
  5 22  1  0
  6  7  1  0
  6 19  1  0
  7  8  1  0
  7 18  1  0
  8  9  2  0
  9 10  1  0
  9 12  1  0
 10 11  3  0
 12 13  1  0
 12 18  2  0
 13 14  1  0
 13 17  1  0
 14 15  1  0
 14 23  1  0
 14 24  1  0
 15 16  1  0
 15 25  1  0
 15 26  1  0
 16 17  1  0
 16 27  1  0
 16 28  1  0
 17 29  1  0
 17 30  1  0
 19 20  2  0
 19 31  1  0
 20 32  1  0
M  END

