
     RDKit          3D

 38 38  0  0  0  0  0  0  0  0999 V2000
    3.7525   -1.2312    3.3584 C   0  0  0  0  0  0  0  0  0  0  0  0
    4.5837   -1.6521    2.1456 C   0  0  0  0  0  0  0  0  0  0  0  0
    3.9773   -1.1961    0.8150 C   0  0  0  0  0  0  0  0  0  0  0  0
    4.8103   -1.5451   -0.4252 C   0  0  0  0  0  0  0  0  0  0  0  0
    4.9867   -2.9878   -0.6450 N   0  0  0  0  0  0  0  0  0  0  0  0
    3.8208   -3.7322   -1.1305 C   0  0  0  0  0  0  0  0  0  0  0  0
    6.2037   -3.5196   -0.3747 C   0  0  0  0  0  0  0  0  0  0  0  0
    7.1647   -2.8601    0.0227 O   0  0  0  0  0  0  0  0  0  0  0  0
    6.4142   -5.0490   -0.5691 C   0  0  0  0  0  0  0  0  0  0  0  0
    5.5461   -5.8386   -0.9015 O   0  0  0  0  0  0  0  0  0  0  0  0
    7.7145   -5.3522   -0.2981 N   0  0  0  0  0  0  0  0  0  0  0  0
    8.3578   -6.5940   -0.3323 C   0  0  0  0  0  0  0  0  0  0  0  0
    7.7096   -7.7909   -0.6841 C   0  0  0  0  0  0  0  0  0  0  0  0
    8.4268   -8.9859   -0.6937 C   0  0  0  0  0  0  0  0  0  0  0  0
    9.7826   -9.0195   -0.3593 C   0  0  0  0  0  0  0  0  0  0  0  0
   10.6098  -10.5556   -0.3952 Cl  0  0  0  0  0  0  0  0  0  0  0  0
   10.4420   -7.8281   -0.0054 C   0  0  0  0  0  0  0  0  0  0  0  0
   11.9116   -7.8049    0.3665 C   0  0  1  0  0  0  0  0  0  0  0  0
   12.1677   -8.5701    1.4385 F   0  0  0  0  0  0  0  0  0  0  0  0
   12.6878   -8.2417   -0.6371 F   0  0  0  0  0  0  0  0  0  0  0  0
   12.3210   -6.5576    0.6664 F   0  0  0  0  0  0  0  0  0  0  0  0
    9.7214   -6.6326    0.0032 C   0  0  0  0  0  0  0  0  0  0  0  0
    4.2087   -1.5785    4.2989 H   0  0  0  0  0  0  0  0  0  0  0  0
    2.7317   -1.6466    3.3113 H   0  0  0  0  0  0  0  0  0  0  0  0
    3.6583   -0.1339    3.4205 H   0  0  0  0  0  0  0  0  0  0  0  0
    4.6914   -2.7510    2.1401 H   0  0  0  0  0  0  0  0  0  0  0  0
    5.6090   -1.2533    2.2335 H   0  0  0  0  0  0  0  0  0  0  0  0
    3.8525   -0.0981    0.8227 H   0  0  0  0  0  0  0  0  0  0  0  0
    2.9571   -1.6099    0.7114 H   0  0  0  0  0  0  0  0  0  0  0  0
    5.8128   -1.1072   -0.3417 H   0  0  0  0  0  0  0  0  0  0  0  0
    4.3300   -1.1249   -1.3250 H   0  0  0  0  0  0  0  0  0  0  0  0
    3.0326   -3.0034   -1.3626 H   0  0  0  0  0  0  0  0  0  0  0  0
    3.4383   -4.4408   -0.3822 H   0  0  0  0  0  0  0  0  0  0  0  0
    4.0543   -4.3042   -2.0369 H   0  0  0  0  0  0  0  0  0  0  0  0
    8.2504   -4.5272   -0.0219 H   0  0  0  0  0  0  0  0  0  0  0  0
    6.6537   -7.7738   -0.9449 H   0  0  0  0  0  0  0  0  0  0  0  0
    7.9283   -9.9176   -0.9660 H   0  0  0  0  0  0  0  0  0  0  0  0
   10.2359   -5.7107    0.2779 H   0  0  0  0  0  0  0  0  0  0  0  0
  1  2  1  0
  1 23  1  0
  1 24  1  0
  1 25  1  0
  2  3  1  0
  2 26  1  0
  2 27  1  0
  3  4  1  0
  3 28  1  0
  3 29  1  0
  4  5  1  0
  4 30  1  0
  4 31  1  0
  5  6  1  0
  5  7  1  0
  6 32  1  0
  6 33  1  0
  6 34  1  0
  7  8  2  0
  7  9  1  0
  9 10  2  0
  9 11  1  0
 11 12  1  0
 11 35  1  0
 12 13  2  0
 12 22  1  0
 13 14  1  0
 13 36  1  0
 14 15  2  0
 14 37  1  0
 15 16  1  0
 15 17  1  0
 17 18  1  0
 17 22  2  0
 18 19  1  1
 18 20  1  0
 18 21  1  0
 22 38  1  0
M  END

