
     RDKit          3D

 48 53  0  0  0  0  0  0  0  0999 V2000
    1.2346    0.4680   -1.0174 O   0  0  0  0  0  0  0  0  0  0  0  0
    2.2236    0.5096   -0.3488 C   0  0  0  0  0  0  0  0  0  0  0  0
    3.1249    1.7063   -0.1541 C   0  0  0  0  0  0  0  0  0  0  0  0
    3.6789    1.8248    1.2823 C   0  0  1  0  0  0  0  0  0  0  0  0
    2.6460    2.3883    2.2579 C   0  0  0  0  0  0  0  0  0  0  0  0
    1.6662    1.5854    2.8581 C   0  0  0  0  0  0  0  0  0  0  0  0
    0.7048    2.1389    3.7079 C   0  0  0  0  0  0  0  0  0  0  0  0
    0.7126    3.5102    3.9736 C   0  0  0  0  0  0  0  0  0  0  0  0
   -0.3061    4.1356    4.8927 C   0  0  1  0  0  0  0  0  0  0  0  0
   -1.1874    3.2387    5.3646 F   0  0  0  0  0  0  0  0  0  0  0  0
    0.2812    4.7186    5.9562 F   0  0  0  0  0  0  0  0  0  0  0  0
   -1.0091    5.0992    4.2668 F   0  0  0  0  0  0  0  0  0  0  0  0
    1.6882    4.3250    3.3841 C   0  0  0  0  0  0  0  0  0  0  0  0
    2.6416    3.7651    2.5368 C   0  0  0  0  0  0  0  0  0  0  0  0
    4.2321    0.4772    1.6839 C   0  0  0  0  0  0  0  0  0  0  0  0
    3.7019   -0.6670    1.1572 C   0  0  0  0  0  0  0  0  0  0  0  0
    4.1769   -1.9960    1.4935 C   0  0  0  0  0  0  0  0  0  0  0  0
    3.6030   -3.1545    0.9269 C   0  0  0  0  0  0  0  0  0  0  0  0
    4.0810   -4.4112    1.2736 C   0  0  0  0  0  0  0  0  0  0  0  0
    5.1382   -4.5400    2.1927 C   0  0  0  0  0  0  0  0  0  0  0  0
    5.7115   -3.4101    2.7604 C   0  0  0  0  0  0  0  0  0  0  0  0
    5.2440   -2.1246    2.4231 C   0  0  0  0  0  0  0  0  0  0  0  0
    5.8355   -0.9229    3.0082 C   0  0  0  0  0  0  0  0  0  0  0  0
    6.8318   -1.0360    3.8740 N   0  0  0  0  0  0  0  0  0  0  0  0
    7.3591    0.0882    4.3973 C   0  0  0  0  0  0  0  0  0  0  0  0
    8.4299    0.0072    5.3353 C   0  0  0  0  0  0  0  0  0  0  0  0
    8.9703    1.1556    5.8668 C   0  0  0  0  0  0  0  0  0  0  0  0
    8.4713    2.4359    5.4895 C   0  0  0  0  0  0  0  0  0  0  0  0
    7.4393    2.5511    4.5866 C   0  0  0  0  0  0  0  0  0  0  0  0
    6.8538    1.3827    4.0161 C   0  0  0  0  0  0  0  0  0  0  0  0
    5.8432    1.4931    3.1325 N   0  0  0  0  0  0  0  0  0  0  0  0
    5.3238    0.3776    2.6297 C   0  0  0  0  0  0  0  0  0  0  0  0
    2.6380   -0.6451    0.2862 O   0  0  0  0  0  0  0  0  0  0  0  0
    2.5667    2.5981   -0.4666 H   0  0  0  0  0  0  0  0  0  0  0  0
    3.9712    1.5779   -0.8533 H   0  0  0  0  0  0  0  0  0  0  0  0
    4.5173    2.5342    1.2684 H   0  0  0  0  0  0  0  0  0  0  0  0
    1.6491    0.5093    2.6731 H   0  0  0  0  0  0  0  0  0  0  0  0
   -0.0516    1.5009    4.1669 H   0  0  0  0  0  0  0  0  0  0  0  0
    1.7042    5.3972    3.5927 H   0  0  0  0  0  0  0  0  0  0  0  0
    3.4041    4.4072    2.0879 H   0  0  0  0  0  0  0  0  0  0  0  0
    2.7811   -3.0454    0.2189 H   0  0  0  0  0  0  0  0  0  0  0  0
    3.6315   -5.3032    0.8303 H   0  0  0  0  0  0  0  0  0  0  0  0
    5.5089   -5.5323    2.4613 H   0  0  0  0  0  0  0  0  0  0  0  0
    6.5314   -3.4857    3.4756 H   0  0  0  0  0  0  0  0  0  0  0  0
    8.7936   -0.9857    5.6072 H   0  0  0  0  0  0  0  0  0  0  0  0
    9.7905    1.0918    6.5863 H   0  0  0  0  0  0  0  0  0  0  0  0
    8.9168    3.3331    5.9266 H   0  0  0  0  0  0  0  0  0  0  0  0
    7.0390    3.5207    4.2839 H   0  0  0  0  0  0  0  0  0  0  0  0
  1  2  2  0
  2  3  1  0
  2 33  1  0
  3  4  1  0
  3 34  1  0
  3 35  1  0
  4  5  1  0
  4 15  1  0
  4 36  1  6
  5  6  2  0
  5 14  1  0
  6  7  1  0
  6 37  1  0
  7  8  2  0
  7 38  1  0
  8  9  1  0
  8 13  1  0
  9 10  1  1
  9 11  1  0
  9 12  1  0
 13 14  2  0
 13 39  1  0
 14 40  1  0
 15 16  2  0
 15 32  1  0
 16 17  1  0
 16 33  1  0
 17 18  2  0
 17 22  1  0
 18 19  1  0
 18 41  1  0
 19 20  2  0
 19 42  1  0
 20 21  1  0
 20 43  1  0
 21 22  2  0
 21 44  1  0
 22 23  1  0
 23 24  1  0
 23 32  2  0
 24 25  2  0
 25 26  1  0
 25 30  1  0
 26 27  2  0
 26 45  1  0
 27 28  1  0
 27 46  1  0
 28 29  2  0
 28 47  1  0
 29 30  1  0
 29 48  1  0
 30 31  2  0
 31 32  1  0
M  END

