
     RDKit          3D

 64 67  0  0  0  0  0  0  0  0999 V2000
    7.6407   -2.1636   -1.8229 C   0  0  0  0  0  0  0  0  0  0  0  0
    6.9573   -2.2004   -3.0570 O   0  0  0  0  0  0  0  0  0  0  0  0
    5.8050   -3.0008   -3.0844 C   0  0  0  0  0  0  0  0  0  0  0  0
    4.6063   -2.4326   -2.3111 C   0  0  0  0  0  0  0  0  0  0  0  0
    4.2289   -1.0968   -2.7644 N   0  0  0  0  0  0  0  0  0  0  0  0
    3.2768   -1.0210   -3.8487 C   0  0  0  0  0  0  0  0  0  0  0  0
    1.8392   -1.2870   -3.3710 C   0  0  0  0  0  0  0  0  0  0  0  0
    1.5403   -1.4487   -2.2034 O   0  0  0  0  0  0  0  0  0  0  0  0
    0.8812   -1.3236   -4.3591 N   0  0  0  0  0  0  0  0  0  0  0  0
    1.1557   -1.0186   -5.6589 N   0  0  0  0  0  0  0  0  0  0  0  0
    0.0532   -0.9237   -6.3263 C   0  0  0  0  0  0  0  0  0  0  0  0
    0.0693   -0.6123   -7.7626 C   0  0  0  0  0  0  0  0  0  0  0  0
    1.2933   -0.4747   -8.4545 C   0  0  0  0  0  0  0  0  0  0  0  0
    1.3334   -0.1791   -9.8133 C   0  0  0  0  0  0  0  0  0  0  0  0
    0.1419   -0.0113  -10.5317 C   0  0  0  0  0  0  0  0  0  0  0  0
   -1.0836   -0.1408   -9.8790 C   0  0  0  0  0  0  0  0  0  0  0  0
   -1.1028   -0.4361   -8.5181 C   0  0  0  0  0  0  0  0  0  0  0  0
   -2.3051   -0.5494   -7.9220 F   0  0  0  0  0  0  0  0  0  0  0  0
   -1.1753   -1.1511   -5.4606 C   0  0  0  0  0  0  0  0  0  0  0  0
   -0.5636   -1.5448   -4.0911 C   0  0  1  0  0  0  0  0  0  0  0  0
   -0.8530   -2.9671   -3.6388 C   0  0  0  0  0  0  0  0  0  0  0  0
   -0.6026   -4.0594   -4.4852 C   0  0  0  0  0  0  0  0  0  0  0  0
   -0.8740   -5.3630   -4.0638 C   0  0  0  0  0  0  0  0  0  0  0  0
   -1.4023   -5.5927   -2.7890 C   0  0  0  0  0  0  0  0  0  0  0  0
   -1.6492   -4.5122   -1.9383 C   0  0  0  0  0  0  0  0  0  0  0  0
   -1.3712   -3.2090   -2.3605 C   0  0  0  0  0  0  0  0  0  0  0  0
    4.5737   -0.0248   -1.9650 C   0  0  0  0  0  0  0  0  0  0  0  0
    5.0945   -0.1722   -0.8677 O   0  0  0  0  0  0  0  0  0  0  0  0
    4.3383    1.3660   -2.4923 C   0  0  0  0  0  0  0  0  0  0  0  0
    3.7046    2.3092   -1.6634 C   0  0  0  0  0  0  0  0  0  0  0  0
    3.5571    3.6290   -2.0693 C   0  0  0  0  0  0  0  0  0  0  0  0
    4.0719    4.0530   -3.3087 C   0  0  0  0  0  0  0  0  0  0  0  0
    3.8867    5.3611   -3.6159 O   0  0  0  0  0  0  0  0  0  0  0  0
    4.3932    5.8652   -4.8306 C   0  0  0  0  0  0  0  0  0  0  0  0
    4.7363    3.1298   -4.1307 C   0  0  0  0  0  0  0  0  0  0  0  0
    4.8594    1.7982   -3.7176 C   0  0  0  0  0  0  0  0  0  0  0  0
    8.5909   -1.6359   -1.9941 H   0  0  0  0  0  0  0  0  0  0  0  0
    7.8709   -3.1850   -1.4561 H   0  0  0  0  0  0  0  0  0  0  0  0
    7.0743   -1.6203   -1.0460 H   0  0  0  0  0  0  0  0  0  0  0  0
    6.0155   -4.0202   -2.6938 H   0  0  0  0  0  0  0  0  0  0  0  0
    5.5430   -3.1122   -4.1508 H   0  0  0  0  0  0  0  0  0  0  0  0
    4.8285   -2.3641   -1.2386 H   0  0  0  0  0  0  0  0  0  0  0  0
    3.7488   -3.1162   -2.4200 H   0  0  0  0  0  0  0  0  0  0  0  0
    3.5344   -1.7438   -4.6391 H   0  0  0  0  0  0  0  0  0  0  0  0
    3.2977   -0.0382   -4.3335 H   0  0  0  0  0  0  0  0  0  0  0  0
    2.2153   -0.6097   -7.8874 H   0  0  0  0  0  0  0  0  0  0  0  0
    2.2967   -0.0804  -10.3185 H   0  0  0  0  0  0  0  0  0  0  0  0
    0.1663    0.2194  -11.5993 H   0  0  0  0  0  0  0  0  0  0  0  0
   -2.0344   -0.0172  -10.4007 H   0  0  0  0  0  0  0  0  0  0  0  0
   -1.8297   -1.9338   -5.8682 H   0  0  0  0  0  0  0  0  0  0  0  0
   -1.7840   -0.2356   -5.4040 H   0  0  0  0  0  0  0  0  0  0  0  0
   -0.8721   -0.8563   -3.2916 H   0  0  0  0  0  0  0  0  0  0  0  0
   -0.1852   -3.8950   -5.4829 H   0  0  0  0  0  0  0  0  0  0  0  0
   -0.6728   -6.2033   -4.7334 H   0  0  0  0  0  0  0  0  0  0  0  0
   -1.6165   -6.6125   -2.4592 H   0  0  0  0  0  0  0  0  0  0  0  0
   -2.0531   -4.6834   -0.9372 H   0  0  0  0  0  0  0  0  0  0  0  0
   -1.5441   -2.3682   -1.6842 H   0  0  0  0  0  0  0  0  0  0  0  0
    3.3299    1.9902   -0.6885 H   0  0  0  0  0  0  0  0  0  0  0  0
    3.0548    4.3656   -1.4389 H   0  0  0  0  0  0  0  0  0  0  0  0
    4.1301    6.9312   -4.8615 H   0  0  0  0  0  0  0  0  0  0  0  0
    3.9437    5.3612   -5.7056 H   0  0  0  0  0  0  0  0  0  0  0  0
    5.4922    5.7669   -4.8913 H   0  0  0  0  0  0  0  0  0  0  0  0
    5.1680    3.4335   -5.0845 H   0  0  0  0  0  0  0  0  0  0  0  0
    5.3985    1.0919   -4.3548 H   0  0  0  0  0  0  0  0  0  0  0  0
  1  2  1  0
  1 37  1  0
  1 38  1  0
  1 39  1  0
  2  3  1  0
  3  4  1  0
  3 40  1  0
  3 41  1  0
  4  5  1  0
  4 42  1  0
  4 43  1  0
  5  6  1  0
  5 27  1  0
  6  7  1  0
  6 44  1  0
  6 45  1  0
  7  8  2  0
  7  9  1  0
  9 10  1  0
  9 20  1  0
 10 11  2  0
 11 12  1  0
 11 19  1  0
 12 13  2  0
 12 17  1  0
 13 14  1  0
 13 46  1  0
 14 15  2  0
 14 47  1  0
 15 16  1  0
 15 48  1  0
 16 17  2  0
 16 49  1  0
 17 18  1  0
 19 20  1  0
 19 50  1  0
 19 51  1  0
 20 21  1  0
 20 52  1  1
 21 22  2  0
 21 26  1  0
 22 23  1  0
 22 53  1  0
 23 24  2  0
 23 54  1  0
 24 25  1  0
 24 55  1  0
 25 26  2  0
 25 56  1  0
 26 57  1  0
 27 28  2  0
 27 29  1  0
 29 30  2  0
 29 36  1  0
 30 31  1  0
 30 58  1  0
 31 32  2  0
 31 59  1  0
 32 33  1  0
 32 35  1  0
 33 34  1  0
 34 60  1  0
 34 61  1  0
 34 62  1  0
 35 36  2  0
 35 63  1  0
 36 64  1  0
M  END

