
     RDKit          3D

 48 52  0  0  0  0  0  0  0  0999 V2000
    6.1535    1.9062   -4.3260 O   0  0  0  0  0  0  0  0  0  0  0  0
    5.5848    2.5352   -3.4382 C   0  0  0  0  0  0  0  0  0  0  0  0
    4.1622    2.1920   -3.0809 C   0  0  0  0  0  0  0  0  0  0  0  0
    3.2297    3.1911   -2.9916 N   0  0  0  0  0  0  0  0  0  0  0  0
    2.0339    2.8255   -2.7701 N   0  0  0  0  0  0  0  0  0  0  0  0
    1.9316    1.1091   -2.6392 S   0  0  0  0  0  0  0  0  0  0  0  0
    3.6269    0.9129   -2.9097 C   0  0  0  0  0  0  0  0  0  0  0  0
    4.2480   -0.4054   -2.9021 C   0  0  0  0  0  0  0  0  0  0  0  0
    5.3294   -0.8464   -3.6273 C   0  0  0  0  0  0  0  0  0  0  0  0
    5.6163   -2.2231   -3.3647 C   0  0  0  0  0  0  0  0  0  0  0  0
    6.6169   -3.0664   -3.8909 C   0  0  0  0  0  0  0  0  0  0  0  0
    6.7424   -4.3374   -3.5422 N   0  0  0  0  0  0  0  0  0  0  0  0
    5.9049   -4.8684   -2.6509 N   0  0  0  0  0  0  0  0  0  0  0  0
    4.9285   -4.1657   -2.0856 C   0  0  0  0  0  0  0  0  0  0  0  0
    3.9639   -4.7618   -1.0753 C   0  0  0  0  0  0  0  0  0  0  0  0
    3.0486   -4.0172   -0.7153 O   0  0  0  0  0  0  0  0  0  0  0  0
    4.0855   -6.0280   -0.5889 N   0  0  0  0  0  0  0  0  0  0  0  0
    3.0790   -6.5011    0.3669 C   0  0  0  0  0  0  0  0  0  0  0  0
    2.5217   -7.8475   -0.0937 C   0  0  0  0  0  0  0  0  0  0  0  0
    3.5485   -8.7954   -0.2955 O   0  0  0  0  0  0  0  0  0  0  0  0
    4.4937   -8.3493   -1.2470 C   0  0  0  0  0  0  0  0  0  0  0  0
    5.1346   -7.0237   -0.8375 C   0  0  0  0  0  0  0  0  0  0  0  0
    4.7332   -2.8066   -2.4305 C   0  0  0  0  0  0  0  0  0  0  0  0
    3.5448   -1.6744   -1.8734 S   0  0  0  0  0  0  0  0  0  0  0  0
    6.1811    3.5695   -2.7774 N   0  0  0  0  0  0  0  0  0  0  0  0
    7.5084    4.0159   -3.2036 C   0  0  0  0  0  0  0  0  0  0  0  0
    7.4957    5.5313   -3.4049 C   0  0  0  0  0  0  0  0  0  0  0  0
    7.0395    6.2046   -2.2491 O   0  0  0  0  0  0  0  0  0  0  0  0
    5.7379    5.7984   -1.8786 C   0  0  0  0  0  0  0  0  0  0  0  0
    5.6811    4.2942   -1.6091 C   0  0  0  0  0  0  0  0  0  0  0  0
    5.8765   -0.2036   -4.3156 H   0  0  0  0  0  0  0  0  0  0  0  0
    7.3414   -2.6967   -4.6240 H   0  0  0  0  0  0  0  0  0  0  0  0
    2.2890   -5.7456    0.4488 H   0  0  0  0  0  0  0  0  0  0  0  0
    3.5559   -6.6217    1.3570 H   0  0  0  0  0  0  0  0  0  0  0  0
    1.9391   -7.7028   -1.0274 H   0  0  0  0  0  0  0  0  0  0  0  0
    1.8462   -8.2593    0.6717 H   0  0  0  0  0  0  0  0  0  0  0  0
    4.0153   -8.2315   -2.2415 H   0  0  0  0  0  0  0  0  0  0  0  0
    5.2649   -9.1304   -1.3264 H   0  0  0  0  0  0  0  0  0  0  0  0
    5.8139   -6.6597   -1.6136 H   0  0  0  0  0  0  0  0  0  0  0  0
    5.7002   -7.1725    0.1011 H   0  0  0  0  0  0  0  0  0  0  0  0
    7.7730    3.4863   -4.1270 H   0  0  0  0  0  0  0  0  0  0  0  0
    8.2479    3.7529   -2.4249 H   0  0  0  0  0  0  0  0  0  0  0  0
    6.8548    5.7803   -4.2756 H   0  0  0  0  0  0  0  0  0  0  0  0
    8.5135    5.8964   -3.6102 H   0  0  0  0  0  0  0  0  0  0  0  0
    5.0063    6.0478   -2.6734 H   0  0  0  0  0  0  0  0  0  0  0  0
    5.4711    6.3587   -0.9697 H   0  0  0  0  0  0  0  0  0  0  0  0
    4.6561    3.9941   -1.3722 H   0  0  0  0  0  0  0  0  0  0  0  0
    6.3279    4.0566   -0.7437 H   0  0  0  0  0  0  0  0  0  0  0  0
  1  2  2  0
  2  3  1  0
  2 25  1  0
  3  4  1  0
  3  7  2  0
  4  5  2  0
  5  6  1  0
  6  7  1  0
  7  8  1  0
  8  9  2  0
  8 24  1  0
  9 10  1  0
  9 31  1  0
 10 11  2  0
 10 23  1  0
 11 12  1  0
 11 32  1  0
 12 13  2  0
 13 14  1  0
 14 15  1  0
 14 23  2  0
 15 16  2  0
 15 17  1  0
 17 18  1  0
 17 22  1  0
 18 19  1  0
 18 33  1  0
 18 34  1  0
 19 20  1  0
 19 35  1  0
 19 36  1  0
 20 21  1  0
 21 22  1  0
 21 37  1  0
 21 38  1  0
 22 39  1  0
 22 40  1  0
 23 24  1  0
 25 26  1  0
 25 30  1  0
 26 27  1  0
 26 41  1  0
 26 42  1  0
 27 28  1  0
 27 43  1  0
 27 44  1  0
 28 29  1  0
 29 30  1  0
 29 45  1  0
 29 46  1  0
 30 47  1  0
 30 48  1  0
M  END

