
     RDKit          3D

 45 48  0  0  0  0  0  0  0  0999 V2000
   11.8935    2.7460    1.2486 C   0  0  0  0  0  0  0  0  0  0  0  0
   10.4455    2.7950    1.6225 C   0  0  0  0  0  0  0  0  0  0  0  0
    9.3844    1.9368    1.1887 C   0  0  0  0  0  0  0  0  0  0  0  0
    8.2895    2.4188    1.8459 C   0  0  0  0  0  0  0  0  0  0  0  0
    6.8283    2.0773    1.8503 C   0  0  1  0  0  0  0  0  0  0  0  0
    6.4713    2.2085    2.8863 H   0  0  0  0  0  0  0  0  0  0  0  0
    5.9967    2.9384    0.8648 C   0  0  0  0  0  0  0  0  0  0  0  0
    4.8917    1.9891    0.3886 C   0  0  0  0  0  0  0  0  0  0  0  0
    5.6154    0.6417    0.2947 C   0  0  0  0  0  0  0  0  0  0  0  0
    6.5607    0.6946    1.4198 N   0  0  0  0  0  0  0  0  0  0  0  0
    6.9083   -0.3352    2.2502 C   0  0  0  0  0  0  0  0  0  0  0  0
    7.4983   -0.1474    3.3022 O   0  0  0  0  0  0  0  0  0  0  0  0
    6.5200   -1.7608    1.8236 C   0  0  0  0  0  0  0  0  0  0  0  0
    5.1602   -2.0883    2.2121 N   0  0  0  0  0  0  0  0  0  0  0  0
    4.6382   -1.9067    3.4877 C   0  0  0  0  0  0  0  0  0  0  0  0
    3.3532   -2.3888    3.5601 C   0  0  0  0  0  0  0  0  0  0  0  0
    2.4451   -2.3737    4.7515 C   0  0  0  0  0  0  0  0  0  0  0  0
    3.0506   -2.9186    2.2517 C   0  0  0  0  0  0  0  0  0  0  0  0
    1.9171   -3.5413    1.6963 C   0  0  0  0  0  0  0  0  0  0  0  0
    1.9518   -3.9567    0.3682 C   0  0  0  0  0  0  0  0  0  0  0  0
    3.1058   -3.7637   -0.4206 C   0  0  0  0  0  0  0  0  0  0  0  0
    4.2439   -3.1501    0.0999 C   0  0  0  0  0  0  0  0  0  0  0  0
    4.2053   -2.7244    1.4367 C   0  0  0  0  0  0  0  0  0  0  0  0
    8.6455    3.4719    2.5984 O   0  0  0  0  0  0  0  0  0  0  0  0
   10.0050    3.7086    2.4577 N   0  0  0  0  0  0  0  0  0  0  0  0
   12.0258    2.8577    0.1604 H   0  0  0  0  0  0  0  0  0  0  0  0
   12.3421    1.7826    1.5396 H   0  0  0  0  0  0  0  0  0  0  0  0
   12.4389    3.5542    1.7548 H   0  0  0  0  0  0  0  0  0  0  0  0
    9.4403    1.0877    0.5133 H   0  0  0  0  0  0  0  0  0  0  0  0
    6.6299    3.2413    0.0158 H   0  0  0  0  0  0  0  0  0  0  0  0
    5.6224    3.8542    1.3432 H   0  0  0  0  0  0  0  0  0  0  0  0
    4.4390    2.2944   -0.5662 H   0  0  0  0  0  0  0  0  0  0  0  0
    4.0873    1.9242    1.1393 H   0  0  0  0  0  0  0  0  0  0  0  0
    6.1524    0.5493   -0.6680 H   0  0  0  0  0  0  0  0  0  0  0  0
    4.9303   -0.2100    0.3862 H   0  0  0  0  0  0  0  0  0  0  0  0
    7.2426   -2.4288    2.3197 H   0  0  0  0  0  0  0  0  0  0  0  0
    6.6166   -1.8974    0.7385 H   0  0  0  0  0  0  0  0  0  0  0  0
    5.2492   -1.4344    4.2555 H   0  0  0  0  0  0  0  0  0  0  0  0
    2.9359   -1.9148    5.6229 H   0  0  0  0  0  0  0  0  0  0  0  0
    2.1372   -3.3934    5.0407 H   0  0  0  0  0  0  0  0  0  0  0  0
    1.5196   -1.8059    4.5522 H   0  0  0  0  0  0  0  0  0  0  0  0
    1.0214   -3.6993    2.3029 H   0  0  0  0  0  0  0  0  0  0  0  0
    1.0778   -4.4431   -0.0721 H   0  0  0  0  0  0  0  0  0  0  0  0
    3.1109   -4.1062   -1.4585 H   0  0  0  0  0  0  0  0  0  0  0  0
    5.1334   -3.0192   -0.5210 H   0  0  0  0  0  0  0  0  0  0  0  0
  1  2  1  0
  1 26  1  0
  1 27  1  0
  1 28  1  0
  2  3  1  0
  2 25  2  0
  3  4  2  0
  3 29  1  0
  4  5  1  0
  4 24  1  0
  5  6  1  1
  5  7  1  0
  5 10  1  0
  7  8  1  0
  7 30  1  0
  7 31  1  0
  8  9  1  0
  8 32  1  0
  8 33  1  0
  9 10  1  0
  9 34  1  0
  9 35  1  0
 10 11  1  0
 11 12  2  0
 11 13  1  0
 13 14  1  0
 13 36  1  0
 13 37  1  0
 14 15  1  0
 14 23  1  0
 15 16  2  0
 15 38  1  0
 16 17  1  0
 16 18  1  0
 17 39  1  0
 17 40  1  0
 17 41  1  0
 18 19  1  0
 18 23  2  0
 19 20  2  0
 19 42  1  0
 20 21  1  0
 20 43  1  0
 21 22  2  0
 21 44  1  0
 22 23  1  0
 22 45  1  0
 24 25  1  0
M  END

