
     RDKit          3D

 47 48  0  0  0  0  0  0  0  0999 V2000
    0.7025    0.0169   -0.0521 C   0  0  0  0  0  0  0  0  0  0  0  0
    2.2391    0.0489    0.0650 C   0  0  1  0  0  0  0  0  0  0  0  0
    2.7388   -1.2609    0.7423 C   0  0  0  0  0  0  0  0  0  0  0  0
    2.3064   -1.4732    2.2041 C   0  0  0  0  0  0  0  0  0  0  0  0
    2.9047   -2.7274    2.8013 C   0  0  0  0  0  0  0  0  0  0  0  0
    4.1384   -2.6836    3.4734 C   0  0  0  0  0  0  0  0  0  0  0  0
    4.7174   -3.8406    3.9969 C   0  0  0  0  0  0  0  0  0  0  0  0
    4.0480   -5.0584    3.8523 C   0  0  0  0  0  0  0  0  0  0  0  0
    4.7888   -6.5589    4.5185 S   0  0  1  0  0  0  0  0  0  0  0  0
    4.1354   -6.6732    6.2012 C   0  0  0  0  0  0  0  0  0  0  0  0
    4.2487   -7.7024    3.7691 O   0  0  0  0  0  0  0  0  0  0  0  0
    6.2372   -6.3363    4.6342 O   0  0  0  0  0  0  0  0  0  0  0  0
    2.8282   -5.1375    3.1756 C   0  0  0  0  0  0  0  0  0  0  0  0
    2.2641   -3.9703    2.6587 C   0  0  0  0  0  0  0  0  0  0  0  0
    2.7227   -0.0489   -1.3295 N   0  0  0  0  0  0  0  0  0  0  0  0
    3.1885    0.9425   -1.9669 C   0  0  0  0  0  0  0  0  0  0  0  0
    3.6289    0.8133   -3.4049 C   0  0  0  0  0  0  0  0  0  0  0  0
    3.0866    1.8363   -4.2156 O   0  0  0  0  0  0  0  0  0  0  0  0
    2.7554    1.2829    0.8301 C   0  0  0  0  0  0  0  0  0  0  0  0
    1.9091    2.2911    1.3170 C   0  0  0  0  0  0  0  0  0  0  0  0
    2.4182    3.3963    2.0104 C   0  0  0  0  0  0  0  0  0  0  0  0
    3.7900    3.5208    2.2303 C   0  0  0  0  0  0  0  0  0  0  0  0
    4.6507    2.5293    1.7472 C   0  0  0  0  0  0  0  0  0  0  0  0
    4.1380    1.4291    1.0586 C   0  0  0  0  0  0  0  0  0  0  0  0
    0.4016   -0.8801   -0.6126 H   0  0  0  0  0  0  0  0  0  0  0  0
    0.3313    0.8942   -0.6025 H   0  0  0  0  0  0  0  0  0  0  0  0
    0.2123   -0.0039    0.9318 H   0  0  0  0  0  0  0  0  0  0  0  0
    3.8386   -1.2865    0.6858 H   0  0  0  0  0  0  0  0  0  0  0  0
    2.3927   -2.1013    0.1199 H   0  0  0  0  0  0  0  0  0  0  0  0
    1.2081   -1.5367    2.2640 H   0  0  0  0  0  0  0  0  0  0  0  0
    2.6076   -0.6027    2.8081 H   0  0  0  0  0  0  0  0  0  0  0  0
    4.6552   -1.7262    3.5846 H   0  0  0  0  0  0  0  0  0  0  0  0
    5.6855   -3.8122    4.5012 H   0  0  0  0  0  0  0  0  0  0  0  0
    3.0421   -6.7613    6.1613 H   0  0  0  0  0  0  0  0  0  0  0  0
    4.4514   -5.7923    6.7744 H   0  0  0  0  0  0  0  0  0  0  0  0
    4.5827   -7.5870    6.6173 H   0  0  0  0  0  0  0  0  0  0  0  0
    2.3428   -6.1071    3.0472 H   0  0  0  0  0  0  0  0  0  0  0  0
    1.3086   -4.0254    2.1293 H   0  0  0  0  0  0  0  0  0  0  0  0
    3.2925    1.9598   -1.5410 H   0  0  0  0  0  0  0  0  0  0  0  0
    3.3879   -0.2056   -3.7618 H   0  0  0  0  0  0  0  0  0  0  0  0
    4.7255    0.9342   -3.4540 H   0  0  0  0  0  0  0  0  0  0  0  0
    2.1292    1.7095   -4.2522 H   0  0  0  0  0  0  0  0  0  0  0  0
    0.8314    2.2268    1.1635 H   0  0  0  0  0  0  0  0  0  0  0  0
    1.7317    4.1630    2.3795 H   0  0  0  0  0  0  0  0  0  0  0  0
    4.1881    4.3829    2.7712 H   0  0  0  0  0  0  0  0  0  0  0  0
    5.7289    2.6138    1.9065 H   0  0  0  0  0  0  0  0  0  0  0  0
    4.8318    0.6735    0.6824 H   0  0  0  0  0  0  0  0  0  0  0  0
  1  2  1  0
  1 25  1  0
  1 26  1  0
  1 27  1  0
  2  3  1  0
  2 15  1  6
  2 19  1  0
  3  4  1  0
  3 28  1  0
  3 29  1  0
  4  5  1  0
  4 30  1  0
  4 31  1  0
  5  6  2  0
  5 14  1  0
  6  7  1  0
  6 32  1  0
  7  8  2  0
  7 33  1  0
  8  9  1  0
  8 13  1  0
  9 10  1  1
  9 11  2  0
  9 12  2  0
 10 34  1  0
 10 35  1  0
 10 36  1  0
 13 14  2  0
 13 37  1  0
 14 38  1  0
 15 16  2  0
 16 17  1  0
 16 39  1  0
 17 18  1  0
 17 40  1  0
 17 41  1  0
 18 42  1  0
 19 20  2  0
 19 24  1  0
 20 21  1  0
 20 43  1  0
 21 22  2  0
 21 44  1  0
 22 23  1  0
 22 45  1  0
 23 24  2  0
 23 46  1  0
 24 47  1  0
M  END

