
     RDKit          3D

 43 44  0  0  0  0  0  0  0  0999 V2000
    4.0443    3.0105    1.1932 C   0  0  0  0  0  0  0  0  0  0  0  0
    4.0142    1.5534    0.7324 C   0  0  0  0  0  0  0  0  0  0  0  0
    4.3778    0.5597    1.8354 C   0  0  0  0  0  0  0  0  0  0  0  0
    4.2919   -0.8144    1.3654 N   0  0  0  0  0  0  0  0  0  0  0  0
    4.6527   -1.8366    2.3346 C   0  0  1  0  0  0  0  0  0  0  0  0
    3.6237   -2.0424    3.4579 C   0  0  0  0  0  0  0  0  0  0  0  0
    4.0107   -3.4094    4.0292 C   0  0  0  0  0  0  0  0  0  0  0  0
    4.3771   -4.2951    2.7863 C   0  0  2  0  0  0  0  0  0  0  0  0
    3.1256   -5.0696    2.3372 C   0  0  0  0  0  0  0  0  0  0  0  0
    5.5530   -5.2316    3.0982 C   0  0  0  0  0  0  0  0  0  0  0  0
    6.8137   -4.7065    3.4219 C   0  0  0  0  0  0  0  0  0  0  0  0
    7.9090   -5.5241    3.7206 C   0  0  0  0  0  0  0  0  0  0  0  0
    7.7829   -6.9198    3.7064 C   0  0  0  0  0  0  0  0  0  0  0  0
    8.7662   -7.8111    3.9772 O   0  0  0  0  0  0  0  0  0  0  0  0
   10.0480   -7.3284    4.3065 C   0  0  0  0  0  0  0  0  0  0  0  0
    6.5211   -7.4462    3.3800 C   0  0  0  0  0  0  0  0  0  0  0  0
    6.3700   -8.7783    3.3555 F   0  0  0  0  0  0  0  0  0  0  0  0
    5.4365   -6.6327    3.0832 C   0  0  0  0  0  0  0  0  0  0  0  0
    4.7481   -3.2317    1.6856 C   0  0  0  0  0  0  0  0  0  0  0  0
    3.7818    3.6968    0.3728 H   0  0  0  0  0  0  0  0  0  0  0  0
    5.0438    3.2986    1.5598 H   0  0  0  0  0  0  0  0  0  0  0  0
    3.3288    3.1864    2.0140 H   0  0  0  0  0  0  0  0  0  0  0  0
    4.7126    1.4206   -0.1155 H   0  0  0  0  0  0  0  0  0  0  0  0
    3.0144    1.2916    0.3464 H   0  0  0  0  0  0  0  0  0  0  0  0
    3.6753    0.6869    2.6779 H   0  0  0  0  0  0  0  0  0  0  0  0
    5.3859    0.8129    2.2425 H   0  0  0  0  0  0  0  0  0  0  0  0
    4.8720   -0.9195    0.5328 H   0  0  0  0  0  0  0  0  0  0  0  0
    5.6296   -1.6038    2.8237 H   0  0  0  0  0  0  0  0  0  0  0  0
    2.6161   -2.0609    3.0084 H   0  0  0  0  0  0  0  0  0  0  0  0
    3.6336   -1.2458    4.2184 H   0  0  0  0  0  0  0  0  0  0  0  0
    3.2186   -3.8705    4.6399 H   0  0  0  0  0  0  0  0  0  0  0  0
    4.8891   -3.2982    4.6834 H   0  0  0  0  0  0  0  0  0  0  0  0
    2.7846   -5.7808    3.1056 H   0  0  0  0  0  0  0  0  0  0  0  0
    3.3061   -5.6297    1.4058 H   0  0  0  0  0  0  0  0  0  0  0  0
    2.2969   -4.3709    2.1459 H   0  0  0  0  0  0  0  0  0  0  0  0
    6.9615   -3.6240    3.4455 H   0  0  0  0  0  0  0  0  0  0  0  0
    8.8660   -5.0624    3.9652 H   0  0  0  0  0  0  0  0  0  0  0  0
   10.6785   -8.2102    4.4829 H   0  0  0  0  0  0  0  0  0  0  0  0
   10.0330   -6.7109    5.2232 H   0  0  0  0  0  0  0  0  0  0  0  0
   10.4879   -6.7332    3.4855 H   0  0  0  0  0  0  0  0  0  0  0  0
    4.5006   -7.1350    2.8401 H   0  0  0  0  0  0  0  0  0  0  0  0
    4.0114   -3.2701    0.8668 H   0  0  0  0  0  0  0  0  0  0  0  0
    5.7364   -3.4191    1.2403 H   0  0  0  0  0  0  0  0  0  0  0  0
  1  2  1  0
  1 20  1  0
  1 21  1  0
  1 22  1  0
  2  3  1  0
  2 23  1  0
  2 24  1  0
  3  4  1  0
  3 25  1  0
  3 26  1  0
  4  5  1  0
  4 27  1  0
  5  6  1  0
  5 19  1  0
  5 28  1  1
  6  7  1  0
  6 29  1  0
  6 30  1  0
  7  8  1  0
  7 31  1  0
  7 32  1  0
  8  9  1  6
  8 10  1  0
  8 19  1  0
  9 33  1  0
  9 34  1  0
  9 35  1  0
 10 11  2  0
 10 18  1  0
 11 12  1  0
 11 36  1  0
 12 13  2  0
 12 37  1  0
 13 14  1  0
 13 16  1  0
 14 15  1  0
 15 38  1  0
 15 39  1  0
 15 40  1  0
 16 17  1  0
 16 18  2  0
 18 41  1  0
 19 42  1  0
 19 43  1  0
M  END

