
     RDKit          3D

 67 70  0  0  0  0  0  0  0  0999 V2000
    3.7327   -0.9838    2.0315 C   0  0  0  0  0  0  0  0  0  0  0  0
    3.2910    0.3560    2.0773 O   0  0  0  0  0  0  0  0  0  0  0  0
    3.9534    1.3103    1.3865 C   0  0  0  0  0  0  0  0  0  0  0  0
    5.1022    1.0686    0.6136 C   0  0  0  0  0  0  0  0  0  0  0  0
    5.7280    2.1170   -0.0573 C   0  0  0  0  0  0  0  0  0  0  0  0
    5.2394    3.4339    0.0183 C   0  0  0  0  0  0  0  0  0  0  0  0
    5.8578    4.5710   -0.6608 C   0  0  0  0  0  0  0  0  0  0  0  0
    6.9474    4.5840   -1.4548 C   0  0  0  0  0  0  0  0  0  0  0  0
    7.4136    5.8639   -2.0565 C   0  0  0  0  0  0  0  0  0  0  0  0
    6.8667    6.9386   -1.8631 O   0  0  0  0  0  0  0  0  0  0  0  0
    8.5326    5.7326   -2.8576 N   0  0  0  0  0  0  0  0  0  0  0  0
    9.1621    6.7971   -3.5322 C   0  0  0  0  0  0  0  0  0  0  0  0
    9.6773    8.0086   -2.9831 C   0  0  0  0  0  0  0  0  0  0  0  0
    9.6424    8.4719   -1.5628 C   0  0  0  0  0  0  0  0  0  0  0  0
   10.2293    8.7427   -3.9439 N   0  0  0  0  0  0  0  0  0  0  0  0
   10.0976    8.0323   -5.0854 N   0  0  0  0  0  0  0  0  0  0  0  0
   10.5594    8.6079   -6.3343 C   0  0  0  0  0  0  0  0  0  0  0  0
    9.4896    9.3609   -7.1091 C   0  0  0  0  0  0  0  0  0  0  0  0
    8.6399   10.2709   -6.4612 C   0  0  0  0  0  0  0  0  0  0  0  0
    7.6834   10.9798   -7.1843 C   0  0  0  0  0  0  0  0  0  0  0  0
    7.5571   10.7997   -8.5676 C   0  0  0  0  0  0  0  0  0  0  0  0
    6.3522   11.7020   -9.4402 Cl  0  0  0  0  0  0  0  0  0  0  0  0
    8.4036    9.8925   -9.2233 C   0  0  0  0  0  0  0  0  0  0  0  0
    8.2844    9.6254  -10.9401 Cl  0  0  0  0  0  0  0  0  0  0  0  0
    9.3591    9.1794   -8.4894 C   0  0  0  0  0  0  0  0  0  0  0  0
    9.4398    6.8514   -4.8951 C   0  0  0  0  0  0  0  0  0  0  0  0
    9.1275    5.8805   -5.9856 C   0  0  0  0  0  0  0  0  0  0  0  0
    4.0842    3.6488    0.7996 C   0  0  0  0  0  0  0  0  0  0  0  0
    3.4370    2.6237    1.4840 C   0  0  0  0  0  0  0  0  0  0  0  0
    2.1912    2.8824    2.2883 C   0  0  0  0  0  0  0  0  0  0  0  0
    1.0620    2.4768    1.5250 O   0  0  0  0  0  0  0  0  0  0  0  0
   -0.1755    2.5405    2.0827 C   0  0  0  0  0  0  0  0  0  0  0  0
   -0.4452    3.0235    3.3706 C   0  0  0  0  0  0  0  0  0  0  0  0
   -1.7709    3.0393    3.8259 C   0  0  0  0  0  0  0  0  0  0  0  0
   -2.8149    2.5876    3.0237 C   0  0  0  0  0  0  0  0  0  0  0  0
   -2.5530    2.1027    1.7268 C   0  0  0  0  0  0  0  0  0  0  0  0
   -3.6823    1.6165    0.8501 C   0  0  0  0  0  0  0  0  0  0  0  0
   -1.2333    2.0855    1.2733 C   0  0  0  0  0  0  0  0  0  0  0  0
    3.0384   -1.5611    2.6560 H   0  0  0  0  0  0  0  0  0  0  0  0
    4.7550   -1.0925    2.4353 H   0  0  0  0  0  0  0  0  0  0  0  0
    3.7085   -1.3857    1.0033 H   0  0  0  0  0  0  0  0  0  0  0  0
    5.5139    0.0629    0.5310 H   0  0  0  0  0  0  0  0  0  0  0  0
    6.6193    1.8983   -0.6497 H   0  0  0  0  0  0  0  0  0  0  0  0
    5.3784    5.5450   -0.5091 H   0  0  0  0  0  0  0  0  0  0  0  0
    7.5064    3.6694   -1.6782 H   0  0  0  0  0  0  0  0  0  0  0  0
    8.9196    4.8031   -2.9732 H   0  0  0  0  0  0  0  0  0  0  0  0
   10.0794    7.7173   -0.8877 H   0  0  0  0  0  0  0  0  0  0  0  0
    8.6022    8.6291   -1.2385 H   0  0  0  0  0  0  0  0  0  0  0  0
   10.2096    9.4073   -1.4600 H   0  0  0  0  0  0  0  0  0  0  0  0
   10.9879    7.8121   -6.9619 H   0  0  0  0  0  0  0  0  0  0  0  0
   11.3789    9.2907   -6.0622 H   0  0  0  0  0  0  0  0  0  0  0  0
    8.7321   10.4197   -5.3831 H   0  0  0  0  0  0  0  0  0  0  0  0
    7.0193   11.6869   -6.6846 H   0  0  0  0  0  0  0  0  0  0  0  0
   10.0029    8.4764   -9.0229 H   0  0  0  0  0  0  0  0  0  0  0  0
    8.5847    6.3599   -6.8163 H   0  0  0  0  0  0  0  0  0  0  0  0
    8.4882    5.0776   -5.5913 H   0  0  0  0  0  0  0  0  0  0  0  0
   10.0343    5.4129   -6.4078 H   0  0  0  0  0  0  0  0  0  0  0  0
    3.6795    4.6626    0.8713 H   0  0  0  0  0  0  0  0  0  0  0  0
    2.1176    3.9577    2.5321 H   0  0  0  0  0  0  0  0  0  0  0  0
    2.2255    2.3155    3.2345 H   0  0  0  0  0  0  0  0  0  0  0  0
    0.3515    3.3858    4.0200 H   0  0  0  0  0  0  0  0  0  0  0  0
   -1.9816    3.4158    4.8307 H   0  0  0  0  0  0  0  0  0  0  0  0
   -3.8419    2.6093    3.3986 H   0  0  0  0  0  0  0  0  0  0  0  0
   -4.2424    0.8004    1.3365 H   0  0  0  0  0  0  0  0  0  0  0  0
   -3.3148    1.2446   -0.1174 H   0  0  0  0  0  0  0  0  0  0  0  0
   -4.4057    2.4245    0.6481 H   0  0  0  0  0  0  0  0  0  0  0  0
   -0.9864    1.7173    0.2747 H   0  0  0  0  0  0  0  0  0  0  0  0
  1  2  1  0
  1 39  1  0
  1 40  1  0
  1 41  1  0
  2  3  1  0
  3  4  2  0
  3 29  1  0
  4  5  1  0
  4 42  1  0
  5  6  2  0
  5 43  1  0
  6  7  1  0
  6 28  1  0
  7  8  2  0
  7 44  1  0
  8  9  1  0
  8 45  1  0
  9 10  2  0
  9 11  1  0
 11 12  1  0
 11 46  1  0
 12 13  1  0
 12 26  2  0
 13 14  1  0
 13 15  2  0
 14 47  1  0
 14 48  1  0
 14 49  1  0
 15 16  1  0
 16 17  1  0
 16 26  1  0
 17 18  1  0
 17 50  1  0
 17 51  1  0
 18 19  2  0
 18 25  1  0
 19 20  1  0
 19 52  1  0
 20 21  2  0
 20 53  1  0
 21 22  1  0
 21 23  1  0
 23 24  1  0
 23 25  2  0
 25 54  1  0
 26 27  1  0
 27 55  1  0
 27 56  1  0
 27 57  1  0
 28 29  2  0
 28 58  1  0
 29 30  1  0
 30 31  1  0
 30 59  1  0
 30 60  1  0
 31 32  1  0
 32 33  2  0
 32 38  1  0
 33 34  1  0
 33 61  1  0
 34 35  2  0
 34 62  1  0
 35 36  1  0
 35 63  1  0
 36 37  1  0
 36 38  2  0
 37 64  1  0
 37 65  1  0
 37 66  1  0
 38 67  1  0
M  END

