
     RDKit          3D

 44 45  0  0  0  0  0  0  0  0999 V2000
    0.7850   -1.1060    0.5471 C   0  0  0  0  0  0  0  0  0  0  0  0
    2.1184   -0.5821    0.0443 C   0  0  0  0  0  0  0  0  0  0  0  0
    2.9053   -1.6773   -0.3675 O   0  0  0  0  0  0  0  0  0  0  0  0
    4.1273   -1.3496   -0.9878 C   0  0  1  0  0  0  0  0  0  0  0  0
    5.2237   -0.9378    0.0222 C   0  0  0  0  0  0  0  0  0  0  0  0
    5.4930   -1.9787    1.1084 C   0  0  0  0  0  0  0  0  0  0  0  0
    4.5815   -2.5212   -1.8505 C   0  0  0  0  0  0  0  0  0  0  0  0
    5.4578   -2.2148   -2.8027 N   0  0  0  0  0  0  0  0  0  0  0  0
    5.9044   -3.1880   -3.6186 C   0  0  0  0  0  0  0  0  0  0  0  0
    6.8208   -2.7581   -4.5340 N   0  0  0  0  0  0  0  0  0  0  0  0
    7.8399   -3.4954   -5.2591 C   0  0  0  0  0  0  0  0  0  0  0  0
    5.3774   -4.5024   -3.4665 C   0  0  0  0  0  0  0  0  0  0  0  0
    5.7431   -5.8894   -4.7440 Br  0  0  0  0  0  0  0  0  0  0  0  0
    4.5033   -4.7428   -2.3959 C   0  0  0  0  0  0  0  0  0  0  0  0
    3.9006   -6.0914   -2.0724 C   0  0  1  0  0  0  0  0  0  0  0  0
    4.0651   -6.5174   -0.5992 C   0  0  0  0  0  0  0  0  0  0  0  0
    3.0640   -7.6739   -0.4528 C   0  0  0  0  0  0  0  0  0  0  0  0
    1.8665   -7.2958   -1.3666 C   0  0  0  0  0  0  0  0  0  0  0  0
    2.3625   -6.1280   -2.2592 C   0  0  0  0  0  0  0  0  0  0  0  0
    4.1238   -3.7378   -1.5868 N   0  0  0  0  0  0  0  0  0  0  0  0
    0.1400   -0.2749    0.8733 H   0  0  0  0  0  0  0  0  0  0  0  0
    0.9339   -1.7871    1.3991 H   0  0  0  0  0  0  0  0  0  0  0  0
    0.2659   -1.6640   -0.2474 H   0  0  0  0  0  0  0  0  0  0  0  0
    2.6226   -0.0017    0.8439 H   0  0  0  0  0  0  0  0  0  0  0  0
    1.9638    0.1175   -0.8048 H   0  0  0  0  0  0  0  0  0  0  0  0
    3.9824   -0.5003   -1.6853 H   0  0  0  0  0  0  0  0  0  0  0  0
    4.9261    0.0187    0.4857 H   0  0  0  0  0  0  0  0  0  0  0  0
    6.1389   -0.7250   -0.5544 H   0  0  0  0  0  0  0  0  0  0  0  0
    4.5719   -2.2137    1.6627 H   0  0  0  0  0  0  0  0  0  0  0  0
    6.2437   -1.6121    1.8264 H   0  0  0  0  0  0  0  0  0  0  0  0
    5.8659   -2.9240    0.6838 H   0  0  0  0  0  0  0  0  0  0  0  0
    6.9877   -1.7650   -4.4116 H   0  0  0  0  0  0  0  0  0  0  0  0
    8.3333   -4.2553   -4.6321 H   0  0  0  0  0  0  0  0  0  0  0  0
    8.6060   -2.7747   -5.5798 H   0  0  0  0  0  0  0  0  0  0  0  0
    7.4497   -3.9967   -6.1575 H   0  0  0  0  0  0  0  0  0  0  0  0
    4.3578   -6.8589   -2.7126 H   0  0  0  0  0  0  0  0  0  0  0  0
    3.7862   -5.6671    0.0431 H   0  0  0  0  0  0  0  0  0  0  0  0
    5.0999   -6.8030   -0.3502 H   0  0  0  0  0  0  0  0  0  0  0  0
    2.7665   -7.8424    0.5941 H   0  0  0  0  0  0  0  0  0  0  0  0
    3.5261   -8.6113   -0.8053 H   0  0  0  0  0  0  0  0  0  0  0  0
    0.9912   -6.9848   -0.7751 H   0  0  0  0  0  0  0  0  0  0  0  0
    1.5435   -8.1589   -1.9696 H   0  0  0  0  0  0  0  0  0  0  0  0
    1.9540   -5.1693   -1.9042 H   0  0  0  0  0  0  0  0  0  0  0  0
    2.0771   -6.2395   -3.3168 H   0  0  0  0  0  0  0  0  0  0  0  0
  1  2  1  0
  1 21  1  0
  1 22  1  0
  1 23  1  0
  2  3  1  0
  2 24  1  0
  2 25  1  0
  3  4  1  0
  4  5  1  0
  4  7  1  0
  4 26  1  6
  5  6  1  0
  5 27  1  0
  5 28  1  0
  6 29  1  0
  6 30  1  0
  6 31  1  0
  7  8  2  0
  7 20  1  0
  8  9  1  0
  9 10  1  0
  9 12  2  0
 10 11  1  0
 10 32  1  0
 11 33  1  0
 11 34  1  0
 11 35  1  0
 12 13  1  0
 12 14  1  0
 14 15  1  0
 14 20  2  0
 15 16  1  0
 15 19  1  0
 15 36  1  6
 16 17  1  0
 16 37  1  0
 16 38  1  0
 17 18  1  0
 17 39  1  0
 17 40  1  0
 18 19  1  0
 18 41  1  0
 18 42  1  0
 19 43  1  0
 19 44  1  0
M  END

