
     RDKit          3D

 52 55  0  0  0  0  0  0  0  0999 V2000
    0.6185    0.3837    0.7012 C   0  0  0  0  0  0  0  0  0  0  0  0
    2.1501    0.2961    0.6868 C   0  0  1  0  0  0  0  0  0  0  0  0
    2.6482   -0.5460   -0.5058 C   0  0  0  0  0  0  0  0  0  0  0  0
    2.7641    1.6742    0.6645 C   0  0  0  0  0  0  0  0  0  0  0  0
    2.2577    2.7182    0.0381 N   0  0  0  0  0  0  0  0  0  0  0  0
    3.1610    3.7323    0.2124 C   0  0  0  0  0  0  0  0  0  0  0  0
    4.2300    3.3118    0.9669 C   0  0  0  0  0  0  0  0  0  0  0  0
    3.9781    1.9775    1.2491 N   0  0  0  0  0  0  0  0  0  0  0  0
    4.8277    1.0839    2.0118 C   0  0  0  0  0  0  0  0  0  0  0  0
    5.3907    4.1621    1.3725 C   0  0  0  0  0  0  0  0  0  0  0  0
    4.9731    5.6326    1.1592 C   0  0  0  0  0  0  0  0  0  0  0  0
    4.2988    5.8569   -0.1229 N   0  0  0  0  0  0  0  0  0  0  0  0
    5.2814    6.2123   -1.4499 S   0  0  1  0  0  0  0  0  0  0  0  0
    6.6076    5.6149   -1.2397 O   0  0  0  0  0  0  0  0  0  0  0  0
    4.4979    5.9152   -2.6528 O   0  0  0  0  0  0  0  0  0  0  0  0
    5.4879    7.9962   -1.3519 C   0  0  0  0  0  0  0  0  0  0  0  0
    6.6824    8.5143   -0.8524 C   0  0  0  0  0  0  0  0  0  0  0  0
    6.8301    9.9112   -0.7622 C   0  0  0  0  0  0  0  0  0  0  0  0
    5.7965   10.7372   -1.1729 C   0  0  0  0  0  0  0  0  0  0  0  0
    4.6005   10.1912   -1.7003 C   0  0  0  0  0  0  0  0  0  0  0  0
    4.4284    8.8074   -1.7881 C   0  0  0  0  0  0  0  0  0  0  0  0
    3.7325   11.2025   -2.0836 N   0  0  0  0  0  0  0  0  0  0  0  0
    2.3264   10.9747   -2.3006 C   0  0  0  0  0  0  0  0  0  0  0  0
    4.1775   12.4581   -1.4731 C   0  0  0  0  0  0  0  0  0  0  0  0
    5.6890   12.2455   -1.2386 C   0  0  0  0  0  0  0  0  0  0  0  0
    3.0366    5.1276   -0.3282 C   0  0  0  0  0  0  0  0  0  0  0  0
    0.1716   -0.6232    0.6918 H   0  0  0  0  0  0  0  0  0  0  0  0
    0.2617    0.9380   -0.1792 H   0  0  0  0  0  0  0  0  0  0  0  0
    0.2563    0.9160    1.5942 H   0  0  0  0  0  0  0  0  0  0  0  0
    2.4750   -0.2088    1.6142 H   0  0  0  0  0  0  0  0  0  0  0  0
    2.3388   -0.0798   -1.4545 H   0  0  0  0  0  0  0  0  0  0  0  0
    2.2311   -1.5657   -0.4685 H   0  0  0  0  0  0  0  0  0  0  0  0
    3.7468   -0.6303   -0.5197 H   0  0  0  0  0  0  0  0  0  0  0  0
    5.7248    1.6265    2.3364 H   0  0  0  0  0  0  0  0  0  0  0  0
    5.1522    0.2229    1.4066 H   0  0  0  0  0  0  0  0  0  0  0  0
    4.3121    0.7049    2.9088 H   0  0  0  0  0  0  0  0  0  0  0  0
    6.2871    3.9501    0.7639 H   0  0  0  0  0  0  0  0  0  0  0  0
    5.6677    4.0176    2.4323 H   0  0  0  0  0  0  0  0  0  0  0  0
    5.8443    6.2978    1.2297 H   0  0  0  0  0  0  0  0  0  0  0  0
    4.2672    5.9352    1.9519 H   0  0  0  0  0  0  0  0  0  0  0  0
    7.4835    7.8367   -0.5564 H   0  0  0  0  0  0  0  0  0  0  0  0
    7.7589   10.3356   -0.3708 H   0  0  0  0  0  0  0  0  0  0  0  0
    3.5221    8.3551   -2.1909 H   0  0  0  0  0  0  0  0  0  0  0  0
    2.1755   10.1262   -2.9849 H   0  0  0  0  0  0  0  0  0  0  0  0
    1.8773   11.8619   -2.7726 H   0  0  0  0  0  0  0  0  0  0  0  0
    1.7691   10.7645   -1.3625 H   0  0  0  0  0  0  0  0  0  0  0  0
    3.6526   12.6291   -0.5082 H   0  0  0  0  0  0  0  0  0  0  0  0
    3.9549   13.3156   -2.1280 H   0  0  0  0  0  0  0  0  0  0  0  0
    6.0533   12.7566   -0.3351 H   0  0  0  0  0  0  0  0  0  0  0  0
    6.2749   12.6299   -2.0929 H   0  0  0  0  0  0  0  0  0  0  0  0
    2.8091    5.1138   -1.4024 H   0  0  0  0  0  0  0  0  0  0  0  0
    2.2174    5.6784    0.1728 H   0  0  0  0  0  0  0  0  0  0  0  0
  1  2  1  0
  1 27  1  0
  1 28  1  0
  1 29  1  0
  2  3  1  0
  2  4  1  0
  2 30  1  1
  3 31  1  0
  3 32  1  0
  3 33  1  0
  4  5  2  0
  4  8  1  0
  5  6  1  0
  6  7  2  0
  6 26  1  0
  7  8  1  0
  7 10  1  0
  8  9  1  0
  9 34  1  0
  9 35  1  0
  9 36  1  0
 10 11  1  0
 10 37  1  0
 10 38  1  0
 11 12  1  0
 11 39  1  0
 11 40  1  0
 12 13  1  0
 12 26  1  0
 13 14  2  0
 13 15  2  0
 13 16  1  6
 16 17  2  0
 16 21  1  0
 17 18  1  0
 17 41  1  0
 18 19  2  0
 18 42  1  0
 19 20  1  0
 19 25  1  0
 20 21  2  0
 20 22  1  0
 21 43  1  0
 22 23  1  0
 22 24  1  0
 23 44  1  0
 23 45  1  0
 23 46  1  0
 24 25  1  0
 24 47  1  0
 24 48  1  0
 25 49  1  0
 25 50  1  0
 26 51  1  0
 26 52  1  0
M  END

