
     RDKit          3D

 63 65  0  0  0  0  0  0  0  0999 V2000
    1.6779    0.3106   -1.7344 C   0  0  0  0  0  0  0  0  0  0  0  0
    2.6569   -0.3482   -2.6764 C   0  0  0  0  0  0  0  0  0  0  0  0
    2.7993    0.1114   -3.9966 C   0  0  0  0  0  0  0  0  0  0  0  0
    3.6828   -0.5099   -4.8820 C   0  0  0  0  0  0  0  0  0  0  0  0
    4.4470   -1.6006   -4.4647 C   0  0  0  0  0  0  0  0  0  0  0  0
    4.3399   -2.0646   -3.1469 C   0  0  0  0  0  0  0  0  0  0  0  0
    5.1918   -3.2455   -2.7570 C   0  0  0  0  0  0  0  0  0  0  0  0
    5.6772   -3.9929   -3.5948 O   0  0  0  0  0  0  0  0  0  0  0  0
    5.3984   -3.4339   -1.4149 N   0  0  0  0  0  0  0  0  0  0  0  0
    6.2904   -4.4885   -0.9262 C   0  0  1  0  0  0  0  0  0  0  0  0
    6.6959   -4.2093    0.5273 C   0  0  0  0  0  0  0  0  0  0  0  0
    5.5319   -4.4055    1.5127 C   0  0  0  0  0  0  0  0  0  0  0  0
    4.9084   -5.7325    1.4006 N   0  0  0  0  0  0  0  0  0  0  0  0
    5.3731   -6.7575    2.2679 C   0  0  0  0  0  0  0  0  0  0  0  0
    5.9585   -7.9354    1.7621 C   0  0  0  0  0  0  0  0  0  0  0  0
    6.4457   -8.9314    2.6093 C   0  0  0  0  0  0  0  0  0  0  0  0
    6.3858   -8.7673    3.9943 C   0  0  0  0  0  0  0  0  0  0  0  0
    5.7898   -7.6189    4.5113 C   0  0  0  0  0  0  0  0  0  0  0  0
    5.2439   -6.6279    3.6801 C   0  0  0  0  0  0  0  0  0  0  0  0
    4.4787   -5.5462    4.4204 C   0  0  0  0  0  0  0  0  0  0  0  0
    4.7175   -5.3004    5.5974 O   0  0  0  0  0  0  0  0  0  0  0  0
    3.4686   -4.9431    3.7305 N   0  0  0  0  0  0  0  0  0  0  0  0
    2.5910   -3.9431    4.3117 C   0  0  0  0  0  0  0  0  0  0  0  0
    1.1329   -4.4009    4.4628 C   0  0  0  0  0  0  0  0  0  0  0  0
    0.8913   -5.6239    5.3665 C   0  0  1  0  0  0  0  0  0  0  0  0
    1.3715   -5.3989    6.8069 C   0  0  0  0  0  0  0  0  0  0  0  0
   -0.5899   -6.0228    5.3314 C   0  0  0  0  0  0  0  0  0  0  0  0
    4.5188   -6.0513    0.0214 C   0  0  0  0  0  0  0  0  0  0  0  0
    5.6363   -5.8811   -1.0163 C   0  0  0  0  0  0  0  0  0  0  0  0
    3.4378   -1.4387   -2.2703 C   0  0  0  0  0  0  0  0  0  0  0  0
    0.6418    0.2085   -2.0986 H   0  0  0  0  0  0  0  0  0  0  0  0
    1.8789    1.3905   -1.6389 H   0  0  0  0  0  0  0  0  0  0  0  0
    1.7227   -0.1301   -0.7275 H   0  0  0  0  0  0  0  0  0  0  0  0
    2.2026    0.9636   -4.3355 H   0  0  0  0  0  0  0  0  0  0  0  0
    3.7735   -0.1415   -5.9071 H   0  0  0  0  0  0  0  0  0  0  0  0
    5.1342   -2.1111   -5.1416 H   0  0  0  0  0  0  0  0  0  0  0  0
    5.1605   -2.6756   -0.7881 H   0  0  0  0  0  0  0  0  0  0  0  0
    7.1835   -4.4889   -1.5729 H   0  0  0  0  0  0  0  0  0  0  0  0
    7.1005   -3.1867    0.6265 H   0  0  0  0  0  0  0  0  0  0  0  0
    7.5124   -4.8989    0.7966 H   0  0  0  0  0  0  0  0  0  0  0  0
    4.7556   -3.6358    1.3403 H   0  0  0  0  0  0  0  0  0  0  0  0
    5.8877   -4.2563    2.5395 H   0  0  0  0  0  0  0  0  0  0  0  0
    6.0602   -8.0676    0.6853 H   0  0  0  0  0  0  0  0  0  0  0  0
    6.8961   -9.8289    2.1770 H   0  0  0  0  0  0  0  0  0  0  0  0
    6.7863   -9.5312    4.6646 H   0  0  0  0  0  0  0  0  0  0  0  0
    5.6985   -7.4666    5.5882 H   0  0  0  0  0  0  0  0  0  0  0  0
    3.3782   -5.1939    2.7485 H   0  0  0  0  0  0  0  0  0  0  0  0
    2.6135   -3.0326    3.6854 H   0  0  0  0  0  0  0  0  0  0  0  0
    3.0216   -3.6749    5.2859 H   0  0  0  0  0  0  0  0  0  0  0  0
    0.7211   -4.6133    3.4585 H   0  0  0  0  0  0  0  0  0  0  0  0
    0.5517   -3.5428    4.8499 H   0  0  0  0  0  0  0  0  0  0  0  0
    1.4738   -6.4644    4.9457 H   0  0  0  0  0  0  0  0  0  0  0  0
    0.8679   -4.5263    7.2600 H   0  0  0  0  0  0  0  0  0  0  0  0
    2.4589   -5.2374    6.8551 H   0  0  0  0  0  0  0  0  0  0  0  0
    1.1399   -6.2746    7.4350 H   0  0  0  0  0  0  0  0  0  0  0  0
   -1.2263   -5.2213    5.7458 H   0  0  0  0  0  0  0  0  0  0  0  0
   -0.7732   -6.9315    5.9273 H   0  0  0  0  0  0  0  0  0  0  0  0
   -0.9344   -6.2215    4.3029 H   0  0  0  0  0  0  0  0  0  0  0  0
    3.6905   -5.3713   -0.2505 H   0  0  0  0  0  0  0  0  0  0  0  0
    4.1054   -7.0694   -0.0038 H   0  0  0  0  0  0  0  0  0  0  0  0
    5.2422   -6.0309   -2.0324 H   0  0  0  0  0  0  0  0  0  0  0  0
    6.4260   -6.6349   -0.8650 H   0  0  0  0  0  0  0  0  0  0  0  0
    3.3080   -1.8201   -1.2535 H   0  0  0  0  0  0  0  0  0  0  0  0
  1  2  1  0
  1 31  1  0
  1 32  1  0
  1 33  1  0
  2  3  2  0
  2 30  1  0
  3  4  1  0
  3 34  1  0
  4  5  2  0
  4 35  1  0
  5  6  1  0
  5 36  1  0
  6  7  1  0
  6 30  2  0
  7  8  2  0
  7  9  1  0
  9 10  1  0
  9 37  1  0
 10 11  1  0
 10 29  1  0
 10 38  1  6
 11 12  1  0
 11 39  1  0
 11 40  1  0
 12 13  1  0
 12 41  1  0
 12 42  1  0
 13 14  1  0
 13 28  1  0
 14 15  2  0
 14 19  1  0
 15 16  1  0
 15 43  1  0
 16 17  2  0
 16 44  1  0
 17 18  1  0
 17 45  1  0
 18 19  2  0
 18 46  1  0
 19 20  1  0
 20 21  2  0
 20 22  1  0
 22 23  1  0
 22 47  1  0
 23 24  1  0
 23 48  1  0
 23 49  1  0
 24 25  1  0
 24 50  1  0
 24 51  1  0
 25 26  1  0
 25 27  1  0
 25 52  1  6
 26 53  1  0
 26 54  1  0
 26 55  1  0
 27 56  1  0
 27 57  1  0
 27 58  1  0
 28 29  1  0
 28 59  1  0
 28 60  1  0
 29 61  1  0
 29 62  1  0
 30 63  1  0
M  END

