
     RDKit          3D

 35 36  0  0  0  0  0  0  0  0999 V2000
    3.0225   -5.1351   -1.9350 C   0  0  0  0  0  0  0  0  0  0  0  0
    2.7411   -4.0755   -1.0388 O   0  0  0  0  0  0  0  0  0  0  0  0
    3.2367   -2.8396   -1.2886 C   0  0  0  0  0  0  0  0  0  0  0  0
    4.0250   -2.5033   -2.3845 C   0  0  0  0  0  0  0  0  0  0  0  0
    4.4673   -1.1815   -2.5137 C   0  0  0  0  0  0  0  0  0  0  0  0
    5.3016   -0.8362   -3.6780 N   0  0  0  0  0  0  0  0  0  0  0  0
    5.5635   -1.7293   -4.4710 O   0  0  0  0  0  0  0  0  0  0  0  0
    5.6809    0.3194   -3.7809 O   0  0  0  0  0  0  0  0  0  0  0  0
    4.1464   -0.1957   -1.5865 C   0  0  0  0  0  0  0  0  0  0  0  0
    3.3553   -0.5335   -0.4866 C   0  0  0  0  0  0  0  0  0  0  0  0
    2.8947   -1.8474   -0.3253 C   0  0  0  0  0  0  0  0  0  0  0  0
    2.1015   -2.2740    0.7392 N   0  0  0  0  0  0  0  0  0  0  0  0
    1.6276   -1.5612    1.7900 C   0  0  0  0  0  0  0  0  0  0  0  0
    1.8012   -0.3742    2.0252 O   0  0  0  0  0  0  0  0  0  0  0  0
    0.7855   -2.4601    2.7302 C   0  0  0  0  0  0  0  0  0  0  0  0
    0.6107   -3.6378    2.5015 O   0  0  0  0  0  0  0  0  0  0  0  0
    0.3194   -1.7168    3.7803 N   0  0  0  0  0  0  0  0  0  0  0  0
   -0.4677   -2.1278    4.8456 C   0  0  0  0  0  0  0  0  0  0  0  0
   -0.9185   -3.3237    5.0452 N   0  0  0  0  0  0  0  0  0  0  0  0
   -1.6692   -3.3938    6.1988 C   0  0  0  0  0  0  0  0  0  0  0  0
   -2.2762   -4.7056    6.5951 C   0  0  0  0  0  0  0  0  0  0  0  0
   -1.7857   -2.2128    6.8870 C   0  0  0  0  0  0  0  0  0  0  0  0
   -0.9244   -0.9422    6.0722 S   0  0  0  0  0  0  0  0  0  0  0  0
    2.5227   -6.0241   -1.5301 H   0  0  0  0  0  0  0  0  0  0  0  0
    4.1072   -5.3263   -2.0030 H   0  0  0  0  0  0  0  0  0  0  0  0
    2.6285   -4.9234   -2.9438 H   0  0  0  0  0  0  0  0  0  0  0  0
    4.3114   -3.2262   -3.1446 H   0  0  0  0  0  0  0  0  0  0  0  0
    4.5149    0.8188   -1.7315 H   0  0  0  0  0  0  0  0  0  0  0  0
    3.0852    0.2124    0.2580 H   0  0  0  0  0  0  0  0  0  0  0  0
    1.8313   -3.2593    0.7424 H   0  0  0  0  0  0  0  0  0  0  0  0
    0.6146   -0.7410    3.7343 H   0  0  0  0  0  0  0  0  0  0  0  0
   -2.9490   -5.0728    5.8033 H   0  0  0  0  0  0  0  0  0  0  0  0
   -2.8465   -4.6200    7.5306 H   0  0  0  0  0  0  0  0  0  0  0  0
   -1.4913   -5.4678    6.7282 H   0  0  0  0  0  0  0  0  0  0  0  0
   -2.3211   -2.0183    7.8142 H   0  0  0  0  0  0  0  0  0  0  0  0
  1  2  1  0
  1 24  1  0
  1 25  1  0
  1 26  1  0
  2  3  1  0
  3  4  2  0
  3 11  1  0
  4  5  1  0
  4 27  1  0
  5  6  1  0
  5  9  2  0
  6  7  1  0
  6  8  1  0
  9 10  1  0
  9 28  1  0
 10 11  2  0
 10 29  1  0
 11 12  1  0
 12 13  1  0
 12 30  1  0
 13 14  2  0
 13 15  1  0
 15 16  2  0
 15 17  1  0
 17 18  2  0
 17 31  1  0
 18 19  1  0
 18 23  1  0
 19 20  2  0
 20 21  1  0
 20 22  1  0
 21 32  1  0
 21 33  1  0
 21 34  1  0
 22 23  2  0
 22 35  1  0
M  CHG  4   7  -1   8  -1  17   1  23   1
M  END

