
     RDKit          3D

 48 49  0  0  0  0  0  0  0  0999 V2000
    4.1079   -0.4405    1.6808 C   0  0  0  0  0  0  0  0  0  0  0  0
    5.1275   -1.5331    1.3582 C   0  0  0  0  0  0  0  0  0  0  0  0
    6.5280   -0.9802    1.0738 C   0  0  0  0  0  0  0  0  0  0  0  0
    7.5836   -2.0437    0.8001 C   0  0  0  0  0  0  0  0  0  0  0  0
    7.2311   -2.8794   -0.3245 O   0  0  0  0  0  0  0  0  0  0  0  0
    7.5939   -2.4921   -1.5691 C   0  0  0  0  0  0  0  0  0  0  0  0
    8.2259   -1.4825   -1.7758 O   0  0  0  0  0  0  0  0  0  0  0  0
    7.1436   -3.4316   -2.6467 C   0  0  0  0  0  0  0  0  0  0  0  0
    7.5432   -3.0683   -3.9457 C   0  0  0  0  0  0  0  0  0  0  0  0
    7.2033   -3.8300   -5.0579 C   0  0  0  0  0  0  0  0  0  0  0  0
    6.4405   -4.9882   -4.8778 C   0  0  0  0  0  0  0  0  0  0  0  0
    6.0258   -5.3790   -3.6072 C   0  0  0  0  0  0  0  0  0  0  0  0
    6.3674   -4.6158   -2.4720 C   0  0  0  0  0  0  0  0  0  0  0  0
    5.9497   -5.0106   -1.1959 N   0  0  0  0  0  0  0  0  0  0  0  0
    5.1926   -6.0708   -0.8188 C   0  0  0  0  0  0  0  0  0  0  0  0
    4.6979   -6.9393   -1.5237 O   0  0  0  0  0  0  0  0  0  0  0  0
    4.9921   -6.0804    0.7192 C   0  0  0  0  0  0  0  0  0  0  0  0
    5.4773   -5.2147    1.4376 O   0  0  0  0  0  0  0  0  0  0  0  0
    4.2460   -7.1278    1.1155 N   0  0  0  0  0  0  0  0  0  0  0  0
    3.8845   -7.4068    2.4890 C   0  0  1  0  0  0  0  0  0  0  0  0
    2.3718   -7.3994    2.7722 C   0  0  0  0  0  0  0  0  0  0  0  0
    2.2839   -8.0487    4.1589 C   0  0  0  0  0  0  0  0  0  0  0  0
    3.3767   -9.1531    4.1548 C   0  0  0  0  0  0  0  0  0  0  0  0
    4.3370   -8.7986    2.9885 C   0  0  0  0  0  0  0  0  0  0  0  0
    3.1094   -0.8652    1.8707 H   0  0  0  0  0  0  0  0  0  0  0  0
    4.0110    0.2778    0.8493 H   0  0  0  0  0  0  0  0  0  0  0  0
    4.4009    0.1327    2.5768 H   0  0  0  0  0  0  0  0  0  0  0  0
    4.7849   -2.1148    0.4859 H   0  0  0  0  0  0  0  0  0  0  0  0
    5.1809   -2.2593    2.1881 H   0  0  0  0  0  0  0  0  0  0  0  0
    6.8819   -0.3935    1.9416 H   0  0  0  0  0  0  0  0  0  0  0  0
    6.4990   -0.2775    0.2232 H   0  0  0  0  0  0  0  0  0  0  0  0
    7.6653   -2.7475    1.6408 H   0  0  0  0  0  0  0  0  0  0  0  0
    8.5624   -1.5865    0.5998 H   0  0  0  0  0  0  0  0  0  0  0  0
    8.1346   -2.1570   -4.0468 H   0  0  0  0  0  0  0  0  0  0  0  0
    7.5279   -3.5247   -6.0550 H   0  0  0  0  0  0  0  0  0  0  0  0
    6.1607   -5.6016   -5.7384 H   0  0  0  0  0  0  0  0  0  0  0  0
    5.4310   -6.2786   -3.4663 H   0  0  0  0  0  0  0  0  0  0  0  0
    6.2570   -4.4204   -0.4175 H   0  0  0  0  0  0  0  0  0  0  0  0
    3.9324   -7.7405    0.3644 H   0  0  0  0  0  0  0  0  0  0  0  0
    4.3653   -6.6187    3.0891 H   0  0  0  0  0  0  0  0  0  0  0  0
    1.8570   -8.0210    2.0166 H   0  0  0  0  0  0  0  0  0  0  0  0
    1.9345   -6.3903    2.7238 H   0  0  0  0  0  0  0  0  0  0  0  0
    1.2809   -8.4401    4.3872 H   0  0  0  0  0  0  0  0  0  0  0  0
    2.5138   -7.2936    4.9291 H   0  0  0  0  0  0  0  0  0  0  0  0
    2.9314  -10.1478    3.9986 H   0  0  0  0  0  0  0  0  0  0  0  0
    3.9020   -9.1970    5.1209 H   0  0  0  0  0  0  0  0  0  0  0  0
    4.2304   -9.5233    2.1635 H   0  0  0  0  0  0  0  0  0  0  0  0
    5.3986   -8.8035    3.2783 H   0  0  0  0  0  0  0  0  0  0  0  0
  1  2  1  0
  1 25  1  0
  1 26  1  0
  1 27  1  0
  2  3  1  0
  2 28  1  0
  2 29  1  0
  3  4  1  0
  3 30  1  0
  3 31  1  0
  4  5  1  0
  4 32  1  0
  4 33  1  0
  5  6  1  0
  6  7  2  0
  6  8  1  0
  8  9  2  0
  8 13  1  0
  9 10  1  0
  9 34  1  0
 10 11  2  0
 10 35  1  0
 11 12  1  0
 11 36  1  0
 12 13  2  0
 12 37  1  0
 13 14  1  0
 14 15  1  0
 14 38  1  0
 15 16  2  0
 15 17  1  0
 17 18  2  0
 17 19  1  0
 19 20  1  0
 19 39  1  0
 20 21  1  0
 20 24  1  0
 20 40  1  1
 21 22  1  0
 21 41  1  0
 21 42  1  0
 22 23  1  0
 22 43  1  0
 22 44  1  0
 23 24  1  0
 23 45  1  0
 23 46  1  0
 24 47  1  0
 24 48  1  0
M  END

