
     RDKit          3D

 48 50  0  0  0  0  0  0  0  0999 V2000
    1.6185    0.4956    1.6394 O   0  0  0  0  0  0  0  0  0  0  0  0
    2.6430    0.1949    1.0338 C   0  0  0  0  0  0  0  0  0  0  0  0
    3.0571   -1.0957    0.8965 N   0  0  0  0  0  0  0  0  0  0  0  0
    2.2750   -2.2362    1.3880 C   0  0  1  0  0  0  0  0  0  0  0  0
    1.3596   -2.7772    0.2910 C   0  0  0  0  0  0  0  0  0  0  0  0
    1.8228   -3.6542   -0.7034 C   0  0  0  0  0  0  0  0  0  0  0  0
    0.9820   -4.0991   -1.7262 C   0  0  0  0  0  0  0  0  0  0  0  0
   -0.3392   -3.6575   -1.7511 C   0  0  0  0  0  0  0  0  0  0  0  0
   -1.1526   -4.0834   -2.7281 F   0  0  0  0  0  0  0  0  0  0  0  0
   -0.8324   -2.7854   -0.7840 C   0  0  0  0  0  0  0  0  0  0  0  0
    0.0234   -2.3494    0.2304 C   0  0  0  0  0  0  0  0  0  0  0  0
    3.1949   -3.2820    2.0361 C   0  0  1  0  0  0  0  0  0  0  0  0
    4.0468   -2.7529    3.2052 C   0  0  0  0  0  0  0  0  0  0  0  0
    4.5328   -4.0351    3.8926 C   0  0  0  0  0  0  0  0  0  0  0  0
    3.3142   -4.9855    3.8374 C   0  0  0  0  0  0  0  0  0  0  0  0
    2.4375   -4.4843    2.6543 C   0  0  0  0  0  0  0  0  0  0  0  0
    3.5403    1.2514    0.3836 C   0  0  1  0  0  0  0  0  0  0  0  0
    2.8073    1.9499   -0.7909 C   0  0  0  0  0  0  0  0  0  0  0  0
    1.6438    2.8513   -0.3703 C   0  0  0  0  0  0  0  0  0  0  0  0
    2.2248    4.1719    0.7304 S   0  0  2  0  0  0  0  0  0  0  0  0
    1.0706    4.8834    1.2932 O   0  0  0  0  0  0  0  0  0  0  0  0
    3.2854    4.9079    0.0150 O   0  0  0  0  0  0  0  0  0  0  0  0
    3.0248    3.1914    2.0301 C   0  0  0  0  0  0  0  0  0  0  0  0
    4.0804    2.2581    1.4304 C   0  0  0  0  0  0  0  0  0  0  0  0
    3.8659   -1.2882    0.3167 H   0  0  0  0  0  0  0  0  0  0  0  0
    1.6321   -1.8126    2.1734 H   0  0  0  0  0  0  0  0  0  0  0  0
    2.8570   -4.0080   -0.6877 H   0  0  0  0  0  0  0  0  0  0  0  0
    1.3327   -4.7846   -2.5003 H   0  0  0  0  0  0  0  0  0  0  0  0
   -1.8730   -2.4592   -0.8355 H   0  0  0  0  0  0  0  0  0  0  0  0
   -0.3484   -1.6522    0.9852 H   0  0  0  0  0  0  0  0  0  0  0  0
    3.8934   -3.6682    1.2683 H   0  0  0  0  0  0  0  0  0  0  0  0
    3.4066   -2.1681    3.8907 H   0  0  0  0  0  0  0  0  0  0  0  0
    4.8666   -2.0918    2.8843 H   0  0  0  0  0  0  0  0  0  0  0  0
    4.9008   -3.8646    4.9162 H   0  0  0  0  0  0  0  0  0  0  0  0
    5.3733   -4.4607    3.3177 H   0  0  0  0  0  0  0  0  0  0  0  0
    2.7456   -4.9375    4.7796 H   0  0  0  0  0  0  0  0  0  0  0  0
    3.6206   -6.0354    3.7132 H   0  0  0  0  0  0  0  0  0  0  0  0
    1.4522   -4.1496    3.0190 H   0  0  0  0  0  0  0  0  0  0  0  0
    2.2386   -5.2692    1.9102 H   0  0  0  0  0  0  0  0  0  0  0  0
    4.4184    0.7428   -0.0478 H   0  0  0  0  0  0  0  0  0  0  0  0
    2.4296    1.1878   -1.4932 H   0  0  0  0  0  0  0  0  0  0  0  0
    3.5390    2.5614   -1.3425 H   0  0  0  0  0  0  0  0  0  0  0  0
    0.8610    2.3126    0.1803 H   0  0  0  0  0  0  0  0  0  0  0  0
    1.2004    3.3842   -1.2252 H   0  0  0  0  0  0  0  0  0  0  0  0
    2.2218    2.6502    2.5474 H   0  0  0  0  0  0  0  0  0  0  0  0
    3.4676    3.9414    2.7030 H   0  0  0  0  0  0  0  0  0  0  0  0
    4.5714    1.7071    2.2500 H   0  0  0  0  0  0  0  0  0  0  0  0
    4.8556    2.8748    0.9484 H   0  0  0  0  0  0  0  0  0  0  0  0
  1  2  2  0
  2  3  1  0
  2 17  1  0
  3  4  1  0
  3 25  1  0
  4  5  1  0
  4 12  1  0
  4 26  1  1
  5  6  2  0
  5 11  1  0
  6  7  1  0
  6 27  1  0
  7  8  2  0
  7 28  1  0
  8  9  1  0
  8 10  1  0
 10 11  2  0
 10 29  1  0
 11 30  1  0
 12 13  1  0
 12 16  1  0
 12 31  1  6
 13 14  1  0
 13 32  1  0
 13 33  1  0
 14 15  1  0
 14 34  1  0
 14 35  1  0
 15 16  1  0
 15 36  1  0
 15 37  1  0
 16 38  1  0
 16 39  1  0
 17 18  1  0
 17 24  1  0
 17 40  1  6
 18 19  1  0
 18 41  1  0
 18 42  1  0
 20 19  1  6
 19 43  1  0
 19 44  1  0
 20 21  2  0
 20 22  2  0
 20 23  1  0
 23 24  1  0
 23 45  1  0
 23 46  1  0
 24 47  1  0
 24 48  1  0
M  END

