
     RDKit          3D

 51 54  0  0  0  0  0  0  0  0999 V2000
    2.5311    1.1057    3.0806 N   0  0  0  0  0  0  0  0  0  0  0  0
    3.2790    0.8679    2.2251 C   0  0  0  0  0  0  0  0  0  0  0  0
    4.1973    0.5752    1.1616 C   0  0  0  0  0  0  0  0  0  0  0  0
    4.4657    1.5332    0.1630 C   0  0  0  0  0  0  0  0  0  0  0  0
    5.3083    1.3030   -0.8384 N   0  0  0  0  0  0  0  0  0  0  0  0
    5.9218    0.1210   -0.8987 C   0  0  0  0  0  0  0  0  0  0  0  0
    5.7363   -0.9181    0.0353 C   0  0  0  0  0  0  0  0  0  0  0  0
    6.5254   -2.1765   -0.0401 C   0  0  0  0  0  0  0  0  0  0  0  0
    7.9135   -2.0651   -0.0936 C   0  0  0  0  0  0  0  0  0  0  0  0
    8.7556   -3.1810    0.0318 C   0  0  0  0  0  0  0  0  0  0  0  0
   10.2348   -2.9568   -0.0149 C   0  0  0  0  0  0  0  0  0  0  0  0
   10.7097   -1.8343    0.0617 O   0  0  0  0  0  0  0  0  0  0  0  0
   10.9973   -4.0983   -0.1650 N   0  0  0  0  0  0  0  0  0  0  0  0
   12.3963   -4.2274   -0.2021 C   0  0  0  0  0  0  0  0  0  0  0  0
   13.2804   -3.1410   -0.0594 C   0  0  0  0  0  0  0  0  0  0  0  0
   14.6583   -3.3580   -0.1022 C   0  0  0  0  0  0  0  0  0  0  0  0
   15.1611   -4.6442   -0.2879 C   0  0  0  0  0  0  0  0  0  0  0  0
   16.5469   -4.8390   -0.3964 O   0  0  0  0  0  0  0  0  0  0  0  0
   17.2341   -5.1267    0.7325 C   0  0  1  0  0  0  0  0  0  0  0  0
   17.1037   -4.1600    1.6584 F   0  0  0  0  0  0  0  0  0  0  0  0
   16.7969   -6.2631    1.3079 F   0  0  0  0  0  0  0  0  0  0  0  0
   18.9516   -5.3082    0.3096 Cl  0  0  0  0  0  0  0  0  0  0  0  0
   14.3001   -5.7313   -0.4359 C   0  0  0  0  0  0  0  0  0  0  0  0
   12.9246   -5.5192   -0.3911 C   0  0  0  0  0  0  0  0  0  0  0  0
    8.1144   -4.3975    0.3025 C   0  0  0  0  0  0  0  0  0  0  0  0
    6.8001   -4.5521    0.3064 N   0  0  0  0  0  0  0  0  0  0  0  0
    5.9835   -3.5093    0.0594 C   0  0  0  0  0  0  0  0  0  0  0  0
    4.6536   -3.8069   -0.0948 N   0  0  0  0  0  0  0  0  0  0  0  0
    4.1584   -5.1900    0.0477 C   0  0  0  0  0  0  0  0  0  0  0  0
    3.1162   -5.3221   -1.0627 C   0  0  0  0  0  0  0  0  0  0  0  0
    2.5023   -3.9198   -1.1168 C   0  0  0  0  0  0  0  0  0  0  0  0
    3.6925   -2.9829   -0.8480 C   0  0  0  0  0  0  0  0  0  0  0  0
    4.8492   -0.6660    1.0903 C   0  0  0  0  0  0  0  0  0  0  0  0
    3.9722    2.5105    0.1948 H   0  0  0  0  0  0  0  0  0  0  0  0
    6.6035   -0.0317   -1.7437 H   0  0  0  0  0  0  0  0  0  0  0  0
    8.3845   -1.0829   -0.1762 H   0  0  0  0  0  0  0  0  0  0  0  0
   10.4888   -4.9596   -0.3203 H   0  0  0  0  0  0  0  0  0  0  0  0
   12.8771   -2.1408    0.0770 H   0  0  0  0  0  0  0  0  0  0  0  0
   15.3511   -2.5215    0.0035 H   0  0  0  0  0  0  0  0  0  0  0  0
   14.7090   -6.7312   -0.5871 H   0  0  0  0  0  0  0  0  0  0  0  0
   12.2477   -6.3710   -0.5055 H   0  0  0  0  0  0  0  0  0  0  0  0
    8.6895   -5.2981    0.5569 H   0  0  0  0  0  0  0  0  0  0  0  0
    3.6984   -5.3237    1.0449 H   0  0  0  0  0  0  0  0  0  0  0  0
    4.9926   -5.8950   -0.0301 H   0  0  0  0  0  0  0  0  0  0  0  0
    2.3789   -6.1130   -0.8605 H   0  0  0  0  0  0  0  0  0  0  0  0
    3.6139   -5.5622   -2.0175 H   0  0  0  0  0  0  0  0  0  0  0  0
    1.7498   -3.8064   -0.3191 H   0  0  0  0  0  0  0  0  0  0  0  0
    2.0056   -3.6884   -2.0705 H   0  0  0  0  0  0  0  0  0  0  0  0
    3.3705   -2.0916   -0.2916 H   0  0  0  0  0  0  0  0  0  0  0  0
    4.1582   -2.6268   -1.7846 H   0  0  0  0  0  0  0  0  0  0  0  0
    4.6711   -1.4218    1.8583 H   0  0  0  0  0  0  0  0  0  0  0  0
  1  2  3  0
  2  3  1  0
  3  4  2  0
  3 33  1  0
  4  5  1  0
  4 34  1  0
  5  6  2  0
  6  7  1  0
  6 35  1  0
  7  8  1  0
  7 33  2  0
  8  9  2  0
  8 27  1  0
  9 10  1  0
  9 36  1  0
 10 11  1  0
 10 25  2  0
 11 12  2  0
 11 13  1  0
 13 14  1  0
 13 37  1  0
 14 15  2  0
 14 24  1  0
 15 16  1  0
 15 38  1  0
 16 17  2  0
 16 39  1  0
 17 18  1  0
 17 23  1  0
 18 19  1  0
 19 20  1  1
 19 21  1  0
 19 22  1  0
 23 24  2  0
 23 40  1  0
 24 41  1  0
 25 26  1  0
 25 42  1  0
 26 27  2  0
 27 28  1  0
 28 29  1  0
 28 32  1  0
 29 30  1  0
 29 43  1  0
 29 44  1  0
 30 31  1  0
 30 45  1  0
 30 46  1  0
 31 32  1  0
 31 47  1  0
 31 48  1  0
 32 49  1  0
 32 50  1  0
 33 51  1  0
M  END

