
     RDKit          3D

 40 42  0  0  0  0  0  0  0  0999 V2000
    1.4894   -0.9598   -1.1371 C   0  0  0  0  0  0  0  0  0  0  0  0
    2.2804   -0.4203    0.0468 C   0  0  0  0  0  0  0  0  0  0  0  0
    1.9955    0.6497    0.5621 O   0  0  0  0  0  0  0  0  0  0  0  0
    3.3362   -1.1743    0.5132 N   0  0  0  0  0  0  0  0  0  0  0  0
    3.7151   -2.4975    0.0356 C   0  0  0  0  0  0  0  0  0  0  0  0
    3.3306   -3.6355    0.9903 C   0  0  0  0  0  0  0  0  0  0  0  0
    3.7793   -3.4450    2.4564 C   0  0  0  0  0  0  0  0  0  0  0  0
    3.1004   -2.4072    3.2199 N   0  0  0  0  0  0  0  0  0  0  0  0
    1.6791   -2.6180    3.4529 C   0  0  0  0  0  0  0  0  0  0  0  0
    1.2551   -2.1734    4.8268 C   0  0  0  0  0  0  0  0  0  0  0  0
    0.0556   -1.7820    5.1747 N   0  0  0  0  0  0  0  0  0  0  0  0
    0.1338   -1.5399    6.5363 C   0  0  0  0  0  0  0  0  0  0  0  0
   -0.8485   -1.0983    7.4362 C   0  0  0  0  0  0  0  0  0  0  0  0
   -0.4890   -0.9267    8.7718 C   0  0  0  0  0  0  0  0  0  0  0  0
    0.8246   -1.1849    9.2189 C   0  0  0  0  0  0  0  0  0  0  0  0
    1.8189   -1.6237    8.3435 C   0  0  0  0  0  0  0  0  0  0  0  0
    1.4520   -1.7973    7.0049 C   0  0  0  0  0  0  0  0  0  0  0  0
    2.1402   -2.2067    5.8795 N   0  0  0  0  0  0  0  0  0  0  0  0
    3.1195   -2.4449    5.7819 H   0  0  0  0  0  0  0  0  0  0  0  0
    3.5034   -1.0111    3.0233 C   0  0  0  0  0  0  0  0  0  0  0  0
    4.0941   -0.6598    1.6469 C   0  0  0  0  0  0  0  0  0  0  0  0
    0.6952   -0.2360   -1.3548 H   0  0  0  0  0  0  0  0  0  0  0  0
    1.0315   -1.9371   -0.9173 H   0  0  0  0  0  0  0  0  0  0  0  0
    2.1212   -1.0773   -2.0320 H   0  0  0  0  0  0  0  0  0  0  0  0
    4.8110   -2.5047   -0.1143 H   0  0  0  0  0  0  0  0  0  0  0  0
    3.2713   -2.6752   -0.9523 H   0  0  0  0  0  0  0  0  0  0  0  0
    3.7717   -4.5725    0.6052 H   0  0  0  0  0  0  0  0  0  0  0  0
    2.2363   -3.7786    0.9686 H   0  0  0  0  0  0  0  0  0  0  0  0
    4.8663   -3.2537    2.4914 H   0  0  0  0  0  0  0  0  0  0  0  0
    3.6326   -4.4046    2.9822 H   0  0  0  0  0  0  0  0  0  0  0  0
    1.4716   -3.6996    3.3683 H   0  0  0  0  0  0  0  0  0  0  0  0
    1.0112   -2.1176    2.7249 H   0  0  0  0  0  0  0  0  0  0  0  0
   -1.8627   -0.8982    7.0842 H   0  0  0  0  0  0  0  0  0  0  0  0
   -1.2368   -0.5843    9.4917 H   0  0  0  0  0  0  0  0  0  0  0  0
    1.0686   -1.0382   10.2742 H   0  0  0  0  0  0  0  0  0  0  0  0
    2.8346   -1.8224    8.6940 H   0  0  0  0  0  0  0  0  0  0  0  0
    4.2504   -0.7016    3.7820 H   0  0  0  0  0  0  0  0  0  0  0  0
    2.6199   -0.3750    3.1836 H   0  0  0  0  0  0  0  0  0  0  0  0
    5.1225   -1.0459    1.5608 H   0  0  0  0  0  0  0  0  0  0  0  0
    4.1406    0.4361    1.5702 H   0  0  0  0  0  0  0  0  0  0  0  0
  1  2  1  0
  1 22  1  0
  1 23  1  0
  1 24  1  0
  2  3  2  0
  2  4  1  0
  4  5  1  0
  4 21  1  0
  5  6  1  0
  5 25  1  0
  5 26  1  0
  6  7  1  0
  6 27  1  0
  6 28  1  0
  7  8  1  0
  7 29  1  0
  7 30  1  0
  8  9  1  0
  8 20  1  0
  9 10  1  0
  9 31  1  0
  9 32  1  0
 10 11  2  0
 10 18  1  0
 11 12  1  0
 12 13  2  0
 12 17  1  0
 13 14  1  0
 13 33  1  0
 14 15  2  0
 14 34  1  0
 15 16  1  0
 15 35  1  0
 16 17  2  0
 16 36  1  0
 17 18  1  0
 18 19  1  0
 20 21  1  0
 20 37  1  0
 20 38  1  0
 21 39  1  0
 21 40  1  0
M  END

