
     RDKit          3D

 45 48  0  0  0  0  0  0  0  0999 V2000
    1.7630    0.3888   -0.1368 O   0  0  0  0  0  0  0  0  0  0  0  0
    2.6058   -0.0771   -0.8957 C   0  0  0  0  0  0  0  0  0  0  0  0
    3.0275    0.6312   -2.1909 C   0  0  0  0  0  0  0  0  0  0  0  0
    2.7152    2.0996   -2.2494 C   0  0  0  0  0  0  0  0  0  0  0  0
    1.5589    2.7717   -1.9298 C   0  0  0  0  0  0  0  0  0  0  0  0
    1.6453    4.1787   -2.1610 C   0  0  0  0  0  0  0  0  0  0  0  0
    2.8651    4.5654   -2.6550 C   0  0  0  0  0  0  0  0  0  0  0  0
    3.9231    3.2105   -2.8413 S   0  0  0  0  0  0  0  0  0  0  0  0
    3.1941   -1.2815   -0.6600 N   0  0  0  0  0  0  0  0  0  0  0  0
    4.2293   -1.9377   -1.4728 C   0  0  0  0  0  0  0  0  0  0  0  0
    4.4403   -3.2939   -0.7833 C   0  0  0  0  0  0  0  0  0  0  0  0
    4.0387   -3.0232    0.6725 C   0  0  0  0  0  0  0  0  0  0  0  0
    2.8351   -2.0673    0.5404 C   0  0  2  0  0  0  0  0  0  0  0  0
    1.5216   -2.7984    0.3820 C   0  0  0  0  0  0  0  0  0  0  0  0
    1.3598   -3.8618   -0.3715 N   0  0  0  0  0  0  0  0  0  0  0  0
    0.0634   -4.2658   -0.2607 N   0  0  0  0  0  0  0  0  0  0  0  0
   -0.5495   -3.4383    0.5572 C   0  0  0  0  0  0  0  0  0  0  0  0
    0.3328   -2.4762    1.0003 N   0  0  0  0  0  0  0  0  0  0  0  0
    0.1002   -1.3574    1.9246 C   0  0  0  0  0  0  0  0  0  0  0  0
   -1.3391   -0.8411    1.9004 C   0  0  0  0  0  0  0  0  0  0  0  0
   -2.3724   -1.6883    2.6609 C   0  0  0  0  0  0  0  0  0  0  0  0
   -2.2890   -3.2033    2.4056 C   0  0  0  0  0  0  0  0  0  0  0  0
   -1.9933   -3.5697    0.9440 C   0  0  0  0  0  0  0  0  0  0  0  0
    2.5135    0.0960   -3.0131 H   0  0  0  0  0  0  0  0  0  0  0  0
    4.1009    0.4720   -2.3715 H   0  0  0  0  0  0  0  0  0  0  0  0
    0.6850    2.2680   -1.5199 H   0  0  0  0  0  0  0  0  0  0  0  0
    0.8305    4.8779   -1.9640 H   0  0  0  0  0  0  0  0  0  0  0  0
    3.2029    5.5665   -2.9191 H   0  0  0  0  0  0  0  0  0  0  0  0
    5.1572   -1.3369   -1.4712 H   0  0  0  0  0  0  0  0  0  0  0  0
    3.9070   -2.0532   -2.5196 H   0  0  0  0  0  0  0  0  0  0  0  0
    5.4742   -3.6542   -0.8894 H   0  0  0  0  0  0  0  0  0  0  0  0
    3.7548   -4.0399   -1.2082 H   0  0  0  0  0  0  0  0  0  0  0  0
    4.8495   -2.5053    1.2116 H   0  0  0  0  0  0  0  0  0  0  0  0
    3.7854   -3.9372    1.2259 H   0  0  0  0  0  0  0  0  0  0  0  0
    2.7650   -1.3832    1.3964 H   0  0  0  0  0  0  0  0  0  0  0  0
    0.7682   -0.5504    1.5985 H   0  0  0  0  0  0  0  0  0  0  0  0
    0.3855   -1.6636    2.9473 H   0  0  0  0  0  0  0  0  0  0  0  0
   -1.6365   -0.7154    0.8460 H   0  0  0  0  0  0  0  0  0  0  0  0
   -1.3313    0.1757    2.3256 H   0  0  0  0  0  0  0  0  0  0  0  0
   -3.3774   -1.3247    2.3850 H   0  0  0  0  0  0  0  0  0  0  0  0
   -2.2737   -1.5041    3.7449 H   0  0  0  0  0  0  0  0  0  0  0  0
   -3.2385   -3.6702    2.7139 H   0  0  0  0  0  0  0  0  0  0  0  0
   -1.5131   -3.6555    3.0474 H   0  0  0  0  0  0  0  0  0  0  0  0
   -2.6248   -2.9627    0.2691 H   0  0  0  0  0  0  0  0  0  0  0  0
   -2.2556   -4.6178    0.7391 H   0  0  0  0  0  0  0  0  0  0  0  0
  1  2  2  0
  2  3  1  0
  2  9  1  0
  3  4  1  0
  3 24  1  0
  3 25  1  0
  4  5  2  0
  4  8  1  0
  5  6  1  0
  5 26  1  0
  6  7  2  0
  6 27  1  0
  7  8  1  0
  7 28  1  0
  9 10  1  0
  9 13  1  0
 10 11  1  0
 10 29  1  0
 10 30  1  0
 11 12  1  0
 11 31  1  0
 11 32  1  0
 12 13  1  0
 12 33  1  0
 12 34  1  0
 13 14  1  0
 13 35  1  1
 14 15  2  0
 14 18  1  0
 15 16  1  0
 16 17  2  0
 17 18  1  0
 17 23  1  0
 18 19  1  0
 19 20  1  0
 19 36  1  0
 19 37  1  0
 20 21  1  0
 20 38  1  0
 20 39  1  0
 21 22  1  0
 21 40  1  0
 21 41  1  0
 22 23  1  0
 22 42  1  0
 22 43  1  0
 23 44  1  0
 23 45  1  0
M  END

