
     RDKit          3D

 81 91  0  0  0  0  0  0  0  0999 V2000
    4.9039   11.4259   -1.9243 C   0  0  0  0  0  0  0  0  0  0  0  0
    4.7101   10.1133   -1.5044 C   0  0  0  0  0  0  0  0  0  0  0  0
    4.3207    9.1067   -2.4112 C   0  0  0  0  0  0  0  0  0  0  0  0
    4.0165    9.5034   -3.7292 C   0  0  0  0  0  0  0  0  0  0  0  0
    4.2103   10.8200   -4.1458 C   0  0  0  0  0  0  0  0  0  0  0  0
    4.7163   11.8003   -3.2688 C   0  0  0  0  0  0  0  0  0  0  0  0
    5.1721   13.1322   -3.7435 C   0  0  0  0  0  0  0  0  0  0  0  0
    5.0886   14.2801   -2.9346 C   0  0  0  0  0  0  0  0  0  0  0  0
    5.6710   15.4856   -3.3273 C   0  0  0  0  0  0  0  0  0  0  0  0
    6.3688   15.5946   -4.5447 C   0  0  0  0  0  0  0  0  0  0  0  0
    6.4002   14.4673   -5.3849 C   0  0  0  0  0  0  0  0  0  0  0  0
    5.8166   13.2660   -4.9904 C   0  0  0  0  0  0  0  0  0  0  0  0
    7.0977   16.8492   -4.8560 C   0  0  1  0  0  0  0  0  0  0  0  0
    7.1101   18.1015   -3.9780 C   0  0  0  0  0  0  0  0  0  0  0  0
    8.4400   18.2590   -4.0859 C   0  0  0  0  0  0  0  0  0  0  0  0
    8.6082   17.0364   -4.9909 C   0  0  2  0  0  0  0  0  0  0  0  0
    7.6828   17.2850   -6.5710 S   0  0  0  0  0  0  0  0  0  0  0  0
    9.6686   15.9984   -4.8514 C   0  0  0  0  0  0  0  0  0  0  0  0
    9.9494   15.4684   -3.5791 C   0  0  0  0  0  0  0  0  0  0  0  0
   10.8879   14.4527   -3.4173 C   0  0  0  0  0  0  0  0  0  0  0  0
   11.6112   13.9329   -4.5112 C   0  0  0  0  0  0  0  0  0  0  0  0
   11.3643   14.5103   -5.7713 C   0  0  0  0  0  0  0  0  0  0  0  0
   10.4069   15.5115   -5.9401 C   0  0  0  0  0  0  0  0  0  0  0  0
   12.5079   12.7580   -4.3398 C   0  0  0  0  0  0  0  0  0  0  0  0
   12.7528   11.8659   -5.4034 C   0  0  0  0  0  0  0  0  0  0  0  0
   13.4009   10.6497   -5.2020 C   0  0  0  0  0  0  0  0  0  0  0  0
   13.8329   10.2593   -3.9189 C   0  0  0  0  0  0  0  0  0  0  0  0
   13.6940   11.1971   -2.8769 C   0  0  0  0  0  0  0  0  0  0  0  0
   13.0530   12.4160   -3.0856 C   0  0  0  0  0  0  0  0  0  0  0  0
   14.1951    8.8552   -3.6610 C   0  0  0  0  0  0  0  0  0  0  0  0
   14.8259    7.9136   -4.4528 C   0  0  0  0  0  0  0  0  0  0  0  0
   14.6801    6.5771   -3.9784 C   0  0  0  0  0  0  0  0  0  0  0  0
   13.9374    6.4804   -2.8172 C   0  0  0  0  0  0  0  0  0  0  0  0
   13.4513    8.0757   -2.2888 S   0  0  0  0  0  0  0  0  0  0  0  0
   13.2026    5.3610   -2.2020 C   0  0  0  0  0  0  0  0  0  0  0  0
   12.4942    4.4642   -3.0261 C   0  0  0  0  0  0  0  0  0  0  0  0
   11.3687    3.7972   -2.5496 C   0  0  0  0  0  0  0  0  0  0  0  0
   10.8982    3.9939   -1.2332 C   0  0  0  0  0  0  0  0  0  0  0  0
   11.7753    4.6652   -0.3533 C   0  0  0  0  0  0  0  0  0  0  0  0
   12.8950    5.3440   -0.8265 C   0  0  0  0  0  0  0  0  0  0  0  0
    9.4461    3.8558   -0.9277 C   0  0  0  0  0  0  0  0  0  0  0  0
    8.5354    3.2930   -1.8494 C   0  0  0  0  0  0  0  0  0  0  0  0
    7.2017    3.6961   -1.8903 C   0  0  0  0  0  0  0  0  0  0  0  0
    6.7134    4.6653   -0.9900 C   0  0  0  0  0  0  0  0  0  0  0  0
    7.5459    4.9995    0.0974 C   0  0  0  0  0  0  0  0  0  0  0  0
    8.8796    4.6087    0.1229 C   0  0  0  0  0  0  0  0  0  0  0  0
    5.5741    5.5271   -1.3435 C   0  0  0  0  0  0  0  0  0  0  0  0
    4.4441    5.3324   -2.1165 C   0  0  0  0  0  0  0  0  0  0  0  0
    3.8102    6.5455   -2.5169 C   0  0  0  0  0  0  0  0  0  0  0  0
    4.4481    7.6835   -2.0571 C   0  0  0  0  0  0  0  0  0  0  0  0
    5.8298    7.2378   -1.0917 S   0  0  0  0  0  0  0  0  0  0  0  0
    5.2819   12.1586   -1.2078 H   0  0  0  0  0  0  0  0  0  0  0  0
    4.9192    9.8486   -0.4649 H   0  0  0  0  0  0  0  0  0  0  0  0
    3.6995    8.7523   -4.4568 H   0  0  0  0  0  0  0  0  0  0  0  0
    4.0054   11.0818   -5.1866 H   0  0  0  0  0  0  0  0  0  0  0  0
    4.5619   14.2318   -1.9786 H   0  0  0  0  0  0  0  0  0  0  0  0
    5.6005   16.3505   -2.6642 H   0  0  0  0  0  0  0  0  0  0  0  0
    6.9096   14.5376   -6.3477 H   0  0  0  0  0  0  0  0  0  0  0  0
    5.9080   12.3956   -5.6441 H   0  0  0  0  0  0  0  0  0  0  0  0
    6.3029   18.7009   -3.5517 H   0  0  0  0  0  0  0  0  0  0  0  0
    9.1512   19.0250   -3.7697 H   0  0  0  0  0  0  0  0  0  0  0  0
    9.3960   15.8313   -2.7095 H   0  0  0  0  0  0  0  0  0  0  0  0
   11.0247   14.0236   -2.4232 H   0  0  0  0  0  0  0  0  0  0  0  0
   11.9239   14.1700   -6.6449 H   0  0  0  0  0  0  0  0  0  0  0  0
   10.2184   15.9179   -6.9361 H   0  0  0  0  0  0  0  0  0  0  0  0
   12.3534   12.0817   -6.3962 H   0  0  0  0  0  0  0  0  0  0  0  0
   13.4874    9.9465   -6.0334 H   0  0  0  0  0  0  0  0  0  0  0  0
   14.0634   10.9498   -1.8783 H   0  0  0  0  0  0  0  0  0  0  0  0
   12.9532   13.1045   -2.2442 H   0  0  0  0  0  0  0  0  0  0  0  0
   15.3565    8.1731   -5.3708 H   0  0  0  0  0  0  0  0  0  0  0  0
   15.0782    5.7052   -4.5011 H   0  0  0  0  0  0  0  0  0  0  0  0
   12.7306    4.4111   -4.0916 H   0  0  0  0  0  0  0  0  0  0  0  0
   10.7679    3.2375   -3.2680 H   0  0  0  0  0  0  0  0  0  0  0  0
   11.5266    4.7570    0.7056 H   0  0  0  0  0  0  0  0  0  0  0  0
   13.4827    5.9537   -0.1351 H   0  0  0  0  0  0  0  0  0  0  0  0
    8.8933    2.6227   -2.6333 H   0  0  0  0  0  0  0  0  0  0  0  0
    6.5699    3.3576   -2.7153 H   0  0  0  0  0  0  0  0  0  0  0  0
    7.1756    5.6760    0.8719 H   0  0  0  0  0  0  0  0  0  0  0  0
    9.5135    5.0131    0.9129 H   0  0  0  0  0  0  0  0  0  0  0  0
    4.0913    4.3434   -2.4155 H   0  0  0  0  0  0  0  0  0  0  0  0
    2.9182    6.5786   -3.1455 H   0  0  0  0  0  0  0  0  0  0  0  0
  1  2  1  0
  1  6  2  0
  1 52  1  0
  2  3  2  0
  2 53  1  0
  3  4  1  0
  3 50  1  0
  4  5  2  0
  4 54  1  0
  5  6  1  0
  5 55  1  0
  6  7  1  0
  7  8  2  0
  7 12  1  0
  8  9  1  0
  8 56  1  0
  9 10  2  0
  9 57  1  0
 10 11  1  0
 10 13  1  0
 11 12  2  0
 11 58  1  0
 12 59  1  0
 13 14  1  1
 13 16  1  0
 13 17  1  0
 14 15  2  0
 14 60  1  0
 16 15  1  1
 15 61  1  0
 16 17  1  0
 16 18  1  0
 18 19  2  0
 18 23  1  0
 19 20  1  0
 19 62  1  0
 20 21  2  0
 20 63  1  0
 21 22  1  0
 21 24  1  0
 22 23  2  0
 22 64  1  0
 23 65  1  0
 24 25  1  0
 24 29  2  0
 25 26  2  0
 25 66  1  0
 26 27  1  0
 26 67  1  0
 27 28  2  0
 27 30  1  0
 28 29  1  0
 28 68  1  0
 29 69  1  0
 30 31  2  0
 30 34  1  0
 31 32  1  0
 31 70  1  0
 32 33  2  0
 32 71  1  0
 33 34  1  0
 33 35  1  0
 35 36  2  0
 35 40  1  0
 36 37  1  0
 36 72  1  0
 37 38  2  0
 37 73  1  0
 38 39  1  0
 38 41  1  0
 39 40  2  0
 39 74  1  0
 40 75  1  0
 41 42  2  0
 41 46  1  0
 42 43  1  0
 42 76  1  0
 43 44  2  0
 43 77  1  0
 44 45  1  0
 44 47  1  0
 45 46  2  0
 45 78  1  0
 46 79  1  0
 47 48  2  0
 47 51  1  0
 48 49  1  0
 48 80  1  0
 49 50  2  0
 49 81  1  0
 50 51  1  0
M  END

