
     RDKit          3D

 42 44  0  0  0  0  0  0  0  0999 V2000
    2.6332    0.1398   -0.6477 C   0  0  0  0  0  0  0  0  0  0  0  0
    2.1981    0.2386    0.7795 C   0  0  0  0  0  0  0  0  0  0  0  0
    2.7692    1.0856    1.6002 N   0  0  0  0  0  0  0  0  0  0  0  0
    2.1404    0.9142    2.8256 O   0  0  0  0  0  0  0  0  0  0  0  0
    1.2019   -0.0411    2.7305 C   0  0  0  0  0  0  0  0  0  0  0  0
    0.4364   -0.3557    3.9677 C   0  0  0  0  0  0  0  0  0  0  0  0
    1.1718   -0.5175    1.4450 C   0  0  0  0  0  0  0  0  0  0  0  0
    0.3135   -1.5832    0.8552 C   0  0  0  0  0  0  0  0  0  0  0  0
    1.1114   -2.7348    0.5895 O   0  0  0  0  0  0  0  0  0  0  0  0
    0.5422   -3.8318    0.0276 C   0  0  0  0  0  0  0  0  0  0  0  0
    1.4030   -4.9195   -0.2074 C   0  0  0  0  0  0  0  0  0  0  0  0
    0.9040   -6.0991   -0.7516 C   0  0  0  0  0  0  0  0  0  0  0  0
   -0.4513   -6.2184   -1.0760 C   0  0  0  0  0  0  0  0  0  0  0  0
   -1.3097   -5.1339   -0.8681 C   0  0  0  0  0  0  0  0  0  0  0  0
   -2.7601   -5.3246   -1.2312 C   0  0  0  0  0  0  0  0  0  0  0  0
   -3.2719   -6.4302   -1.2595 O   0  0  0  0  0  0  0  0  0  0  0  0
   -3.4392   -4.1609   -1.5402 N   0  0  0  0  0  0  0  0  0  0  0  0
   -4.7919   -3.9965   -1.8820 C   0  0  0  0  0  0  0  0  0  0  0  0
   -5.7241   -5.0503   -1.9037 C   0  0  0  0  0  0  0  0  0  0  0  0
   -7.0495   -4.7880   -2.2451 C   0  0  0  0  0  0  0  0  0  0  0  0
   -7.4824   -3.4988   -2.5708 C   0  0  0  0  0  0  0  0  0  0  0  0
   -9.1490   -3.2267   -2.9913 Cl  0  0  0  0  0  0  0  0  0  0  0  0
   -6.5513   -2.4476   -2.5510 C   0  0  0  0  0  0  0  0  0  0  0  0
   -7.0209   -0.8180   -2.9460 Cl  0  0  0  0  0  0  0  0  0  0  0  0
   -5.2223   -2.6993   -2.2089 C   0  0  0  0  0  0  0  0  0  0  0  0
   -0.8158   -3.9403   -0.3061 C   0  0  0  0  0  0  0  0  0  0  0  0
    3.4580    0.8393   -0.8390 H   0  0  0  0  0  0  0  0  0  0  0  0
    1.8033    0.3819   -1.3322 H   0  0  0  0  0  0  0  0  0  0  0  0
    2.9660   -0.8834   -0.8814 H   0  0  0  0  0  0  0  0  0  0  0  0
   -0.1119    0.5306    4.3258 H   0  0  0  0  0  0  0  0  0  0  0  0
    1.1181   -0.6691    4.7744 H   0  0  0  0  0  0  0  0  0  0  0  0
   -0.2844   -1.1646    3.7888 H   0  0  0  0  0  0  0  0  0  0  0  0
   -0.1462   -1.2318   -0.0883 H   0  0  0  0  0  0  0  0  0  0  0  0
   -0.5097   -1.8417    1.5454 H   0  0  0  0  0  0  0  0  0  0  0  0
    2.4563   -4.8122    0.0594 H   0  0  0  0  0  0  0  0  0  0  0  0
    1.5806   -6.9401   -0.9228 H   0  0  0  0  0  0  0  0  0  0  0  0
   -0.8603   -7.1411   -1.4892 H   0  0  0  0  0  0  0  0  0  0  0  0
   -2.8741   -3.3238   -1.6107 H   0  0  0  0  0  0  0  0  0  0  0  0
   -5.3996   -6.0587   -1.6607 H   0  0  0  0  0  0  0  0  0  0  0  0
   -7.7756   -5.6027   -2.2637 H   0  0  0  0  0  0  0  0  0  0  0  0
   -4.5211   -1.8620   -2.2006 H   0  0  0  0  0  0  0  0  0  0  0  0
   -1.4985   -3.1195   -0.0869 H   0  0  0  0  0  0  0  0  0  0  0  0
  1  2  1  0
  1 27  1  0
  1 28  1  0
  1 29  1  0
  2  3  2  0
  2  7  1  0
  3  4  1  0
  4  5  1  0
  5  6  1  0
  5  7  2  0
  6 30  1  0
  6 31  1  0
  6 32  1  0
  7  8  1  0
  8  9  1  0
  8 33  1  0
  8 34  1  0
  9 10  1  0
 10 11  2  0
 10 26  1  0
 11 12  1  0
 11 35  1  0
 12 13  2  0
 12 36  1  0
 13 14  1  0
 13 37  1  0
 14 15  1  0
 14 26  2  0
 15 16  2  0
 15 17  1  0
 17 18  1  0
 17 38  1  0
 18 19  2  0
 18 25  1  0
 19 20  1  0
 19 39  1  0
 20 21  2  0
 20 40  1  0
 21 22  1  0
 21 23  1  0
 23 24  1  0
 23 25  2  0
 25 41  1  0
 26 42  1  0
M  END

