
     RDKit          3D

 61 64  0  0  0  0  0  0  0  0999 V2000
    2.9045   -2.3245   -0.5618 C   0  0  0  0  0  0  0  0  0  0  0  0
    4.3864   -2.4760   -0.2627 C   0  0  0  0  0  0  0  0  0  0  0  0
    4.6637   -2.3742    1.1473 O   0  0  0  0  0  0  0  0  0  0  0  0
    4.8192   -1.1210    1.6628 C   0  0  0  0  0  0  0  0  0  0  0  0
    4.7486   -0.1183    0.9863 O   0  0  0  0  0  0  0  0  0  0  0  0
    5.0792   -1.1402    3.1001 C   0  0  0  0  0  0  0  0  0  0  0  0
    5.3041    0.3974    3.8890 S   0  0  0  0  0  0  0  0  0  0  0  0
    5.5397   -0.3659    5.4339 C   0  0  0  0  0  0  0  0  0  0  0  0
    5.7982    0.4291    6.6447 C   0  0  0  0  0  0  0  0  0  0  0  0
    5.4744    1.7990    6.7085 C   0  0  0  0  0  0  0  0  0  0  0  0
    5.7234    2.5417    7.8629 C   0  0  0  0  0  0  0  0  0  0  0  0
    6.2964    1.9323    8.9832 C   0  0  0  0  0  0  0  0  0  0  0  0
    6.6210    0.5726    8.9358 C   0  0  0  0  0  0  0  0  0  0  0  0
    6.3784   -0.1708    7.7810 C   0  0  0  0  0  0  0  0  0  0  0  0
    5.4580   -1.7427    5.3357 C   0  0  0  0  0  0  0  0  0  0  0  0
    5.1952   -2.1971    4.0100 C   0  0  0  0  0  0  0  0  0  0  0  0
    5.0589   -3.5305    3.6415 N   0  0  0  0  0  0  0  0  0  0  0  0
    5.1812   -4.6367    4.4421 C   0  0  0  0  0  0  0  0  0  0  0  0
    5.4259   -4.6282    5.6345 O   0  0  0  0  0  0  0  0  0  0  0  0
    4.9286   -5.9610    3.7019 C   0  0  0  0  0  0  0  0  0  0  0  0
    5.0916   -5.8769    2.2596 N   0  0  0  0  0  0  0  0  0  0  0  0
    6.4766   -5.9339    1.7959 C   0  0  0  0  0  0  0  0  0  0  0  0
    7.0578   -7.3572    1.7381 C   0  0  0  0  0  0  0  0  0  0  0  0
    6.1768   -8.2422    0.9879 N   0  0  0  0  0  0  0  0  0  0  0  0
    6.6479   -9.2933    0.2277 C   0  0  0  0  0  0  0  0  0  0  0  0
    8.0332   -9.5469    0.0348 C   0  0  0  0  0  0  0  0  0  0  0  0
    8.4151  -10.5993   -0.7836 C   0  0  0  0  0  0  0  0  0  0  0  0
    7.4404  -11.3989   -1.3937 C   0  0  0  0  0  0  0  0  0  0  0  0
    7.7870  -12.5552   -2.2849 C   0  0  1  0  0  0  0  0  0  0  0  0
    9.1166  -12.6892   -2.4404 F   0  0  0  0  0  0  0  0  0  0  0  0
    7.3220  -13.7235   -1.7977 F   0  0  0  0  0  0  0  0  0  0  0  0
    7.2515  -12.4188   -3.5149 F   0  0  0  0  0  0  0  0  0  0  0  0
    6.1023  -11.0883   -1.1251 C   0  0  0  0  0  0  0  0  0  0  0  0
    5.7215  -10.0839   -0.3482 N   0  0  0  0  0  0  0  0  0  0  0  0
    4.7765   -8.2111    1.4134 C   0  0  0  0  0  0  0  0  0  0  0  0
    4.2581   -6.7716    1.4566 C   0  0  0  0  0  0  0  0  0  0  0  0
    2.7228   -2.4802   -1.6374 H   0  0  0  0  0  0  0  0  0  0  0  0
    2.5561   -1.3150   -0.2991 H   0  0  0  0  0  0  0  0  0  0  0  0
    2.3095   -3.0632   -0.0021 H   0  0  0  0  0  0  0  0  0  0  0  0
    4.9741   -1.7132   -0.7934 H   0  0  0  0  0  0  0  0  0  0  0  0
    4.7523   -3.4739   -0.5458 H   0  0  0  0  0  0  0  0  0  0  0  0
    5.0069    2.2858    5.8488 H   0  0  0  0  0  0  0  0  0  0  0  0
    5.4614    3.6024    7.8889 H   0  0  0  0  0  0  0  0  0  0  0  0
    6.4895    2.5136    9.8882 H   0  0  0  0  0  0  0  0  0  0  0  0
    7.0741    0.0869    9.8037 H   0  0  0  0  0  0  0  0  0  0  0  0
    6.6562   -1.2260    7.7530 H   0  0  0  0  0  0  0  0  0  0  0  0
    5.5581   -2.4311    6.1699 H   0  0  0  0  0  0  0  0  0  0  0  0
    4.8562   -3.7204    2.6579 H   0  0  0  0  0  0  0  0  0  0  0  0
    3.8862   -6.2420    3.9289 H   0  0  0  0  0  0  0  0  0  0  0  0
    5.5626   -6.7129    4.2097 H   0  0  0  0  0  0  0  0  0  0  0  0
    7.1086   -5.3044    2.4413 H   0  0  0  0  0  0  0  0  0  0  0  0
    6.5163   -5.5011    0.7810 H   0  0  0  0  0  0  0  0  0  0  0  0
    7.2263   -7.7500    2.7622 H   0  0  0  0  0  0  0  0  0  0  0  0
    8.0394   -7.2985    1.2519 H   0  0  0  0  0  0  0  0  0  0  0  0
    8.8001   -8.9464    0.5204 H   0  0  0  0  0  0  0  0  0  0  0  0
    9.4742  -10.8090   -0.9445 H   0  0  0  0  0  0  0  0  0  0  0  0
    5.2996  -11.6920   -1.5657 H   0  0  0  0  0  0  0  0  0  0  0  0
    4.6797   -8.6786    2.4154 H   0  0  0  0  0  0  0  0  0  0  0  0
    4.1939   -8.8186    0.7119 H   0  0  0  0  0  0  0  0  0  0  0  0
    3.2278   -6.7571    1.8448 H   0  0  0  0  0  0  0  0  0  0  0  0
    4.2268   -6.3753    0.4263 H   0  0  0  0  0  0  0  0  0  0  0  0
  1  2  1  0
  1 37  1  0
  1 38  1  0
  1 39  1  0
  2  3  1  0
  2 40  1  0
  2 41  1  0
  3  4  1  0
  4  5  2  0
  4  6  1  0
  6  7  1  0
  6 16  2  0
  7  8  1  0
  8  9  1  0
  8 15  2  0
  9 10  2  0
  9 14  1  0
 10 11  1  0
 10 42  1  0
 11 12  2  0
 11 43  1  0
 12 13  1  0
 12 44  1  0
 13 14  2  0
 13 45  1  0
 14 46  1  0
 15 16  1  0
 15 47  1  0
 16 17  1  0
 17 18  1  0
 17 48  1  0
 18 19  2  0
 18 20  1  0
 20 21  1  0
 20 49  1  0
 20 50  1  0
 21 22  1  0
 21 36  1  0
 22 23  1  0
 22 51  1  0
 22 52  1  0
 23 24  1  0
 23 53  1  0
 23 54  1  0
 24 25  1  0
 24 35  1  0
 25 26  2  0
 25 34  1  0
 26 27  1  0
 26 55  1  0
 27 28  2  0
 27 56  1  0
 28 29  1  0
 28 33  1  0
 29 30  1  6
 29 31  1  0
 29 32  1  0
 33 34  2  0
 33 57  1  0
 35 36  1  0
 35 58  1  0
 35 59  1  0
 36 60  1  0
 36 61  1  0
M  END

