
     RDKit          3D

 33 34  0  0  0  0  0  0  0  0999 V2000
    1.3330    0.8103    1.0475 C   0  0  0  0  0  0  0  0  0  0  0  0
    2.7645    0.6431    0.6126 C   0  0  0  0  0  0  0  0  0  0  0  0
    3.8273    0.4606    1.5088 C   0  0  0  0  0  0  0  0  0  0  0  0
    5.1460    0.3134    1.0715 C   0  0  0  0  0  0  0  0  0  0  0  0
    5.4610    0.3427   -0.2967 C   0  0  0  0  0  0  0  0  0  0  0  0
    6.9202    0.1539   -0.7544 C   0  0  1  0  0  0  0  0  0  0  0  0
    7.1590    0.8115   -2.1384 C   0  0  0  0  0  0  0  0  0  0  0  0
    7.7767    0.7479    0.2887 N   0  0  0  0  0  0  0  0  0  0  0  0
    7.2709   -1.3511   -0.8589 C   0  0  0  0  0  0  0  0  0  0  0  0
    6.3148   -2.3736   -0.7512 C   0  0  0  0  0  0  0  0  0  0  0  0
    6.6414   -3.7274   -0.8717 C   0  0  0  0  0  0  0  0  0  0  0  0
    7.9660   -4.0796   -1.1058 C   0  0  0  0  0  0  0  0  0  0  0  0
    8.3015   -5.3705   -1.2211 F   0  0  0  0  0  0  0  0  0  0  0  0
    8.9591   -3.1115   -1.2242 C   0  0  0  0  0  0  0  0  0  0  0  0
    8.5867   -1.7769   -1.1027 C   0  0  0  0  0  0  0  0  0  0  0  0
    9.5743   -0.8609   -1.2331 F   0  0  0  0  0  0  0  0  0  0  0  0
    4.4090    0.5247   -1.2075 C   0  0  0  0  0  0  0  0  0  0  0  0
    3.1054    0.6679   -0.7435 C   0  0  0  0  0  0  0  0  0  0  0  0
    2.1204    0.8432   -1.6467 F   0  0  0  0  0  0  0  0  0  0  0  0
    1.2446    0.7566    2.1420 H   0  0  0  0  0  0  0  0  0  0  0  0
    0.6873    0.0308    0.6108 H   0  0  0  0  0  0  0  0  0  0  0  0
    0.9240    1.7790    0.7162 H   0  0  0  0  0  0  0  0  0  0  0  0
    3.6116    0.4349    2.5809 H   0  0  0  0  0  0  0  0  0  0  0  0
    5.9550    0.1787    1.7896 H   0  0  0  0  0  0  0  0  0  0  0  0
    6.8714    1.8747   -2.1104 H   0  0  0  0  0  0  0  0  0  0  0  0
    6.5914    0.3219   -2.9441 H   0  0  0  0  0  0  0  0  0  0  0  0
    8.2243    0.7472   -2.3995 H   0  0  0  0  0  0  0  0  0  0  0  0
    7.5753    1.7462    0.3612 H   0  0  0  0  0  0  0  0  0  0  0  0
    8.7570    0.6607    0.0271 H   0  0  0  0  0  0  0  0  0  0  0  0
    5.2756   -2.1040   -0.5629 H   0  0  0  0  0  0  0  0  0  0  0  0
    5.8825   -4.5064   -0.7829 H   0  0  0  0  0  0  0  0  0  0  0  0
    9.9990   -3.3826   -1.4085 H   0  0  0  0  0  0  0  0  0  0  0  0
    4.5674    0.5569   -2.2852 H   0  0  0  0  0  0  0  0  0  0  0  0
  1  2  1  0
  1 20  1  0
  1 21  1  0
  1 22  1  0
  2  3  2  0
  2 18  1  0
  3  4  1  0
  3 23  1  0
  4  5  2  0
  4 24  1  0
  5  6  1  0
  5 17  1  0
  6  7  1  0
  6  8  1  1
  6  9  1  0
  7 25  1  0
  7 26  1  0
  7 27  1  0
  8 28  1  0
  8 29  1  0
  9 10  2  0
  9 15  1  0
 10 11  1  0
 10 30  1  0
 11 12  2  0
 11 31  1  0
 12 13  1  0
 12 14  1  0
 14 15  2  0
 14 32  1  0
 15 16  1  0
 17 18  2  0
 17 33  1  0
 18 19  1  0
M  END

