
     RDKit          3D

 48 49  0  0  0  0  0  0  0  0999 V2000
    2.7130    1.7181   -1.4533 C   0  0  0  0  0  0  0  0  0  0  0  0
    2.4766    1.8605    0.0595 C   0  0  1  0  0  0  0  0  0  0  0  0
    0.9580    1.8826    0.3651 C   0  0  0  0  0  0  0  0  0  0  0  0
    0.5776    2.2007    1.7825 C   0  0  0  0  0  0  0  0  0  0  0  0
    0.1676    1.3462    2.7786 C   0  0  0  0  0  0  0  0  0  0  0  0
   -0.0924    2.0000    4.0231 C   0  0  0  0  0  0  0  0  0  0  0  0
    0.1185    3.3521    3.9627 C   0  0  0  0  0  0  0  0  0  0  0  0
    0.6353    3.8416    2.3829 S   0  0  0  0  0  0  0  0  0  0  0  0
    3.1984    0.8618    0.8809 N   0  0  0  0  0  0  0  0  0  0  0  0
    2.9218   -0.5328    0.5259 C   0  0  0  0  0  0  0  0  0  0  0  0
    4.6443    1.1222    1.0298 C   0  0  0  0  0  0  0  0  0  0  0  0
    5.1437    1.5098    2.4650 C   0  0  1  0  0  0  0  0  0  0  0  0
    4.6527    0.4683    3.4929 C   0  0  0  0  0  0  0  0  0  0  0  0
    5.3709   -0.1274    4.2580 O   0  0  0  0  0  0  0  0  0  0  0  0
    3.3242    0.2850    3.5063 O   0  0  0  0  0  0  0  0  0  0  0  0
    6.6886    1.5399    2.3679 C   0  0  0  0  0  0  0  0  0  0  0  0
    7.5310    1.9411    3.5885 C   0  0  0  0  0  0  0  0  0  0  0  0
    7.1867    3.2653    4.2853 C   0  0  0  0  0  0  0  0  0  0  0  0
    5.8844    3.2136    5.0974 C   0  0  0  0  0  0  0  0  0  0  0  0
    4.5711    3.3548    4.2980 C   0  0  0  0  0  0  0  0  0  0  0  0
    4.5690    2.9091    2.8258 C   0  0  0  0  0  0  0  0  0  0  0  0
    2.2901    2.5812   -1.9906 H   0  0  0  0  0  0  0  0  0  0  0  0
    2.2369    0.8117   -1.8600 H   0  0  0  0  0  0  0  0  0  0  0  0
    3.7870    1.6723   -1.6922 H   0  0  0  0  0  0  0  0  0  0  0  0
    2.8755    2.8388    0.3697 H   0  0  0  0  0  0  0  0  0  0  0  0
    0.5099    0.9127    0.0953 H   0  0  0  0  0  0  0  0  0  0  0  0
    0.5016    2.6186   -0.3177 H   0  0  0  0  0  0  0  0  0  0  0  0
    0.0549    0.2710    2.6270 H   0  0  0  0  0  0  0  0  0  0  0  0
   -0.4204    1.4823    4.9256 H   0  0  0  0  0  0  0  0  0  0  0  0
   -0.0025    4.0920    4.7525 H   0  0  0  0  0  0  0  0  0  0  0  0
    1.8381   -0.7107    0.4746 H   0  0  0  0  0  0  0  0  0  0  0  0
    3.3195   -1.1972    1.3061 H   0  0  0  0  0  0  0  0  0  0  0  0
    3.3664   -0.8358   -0.4423 H   0  0  0  0  0  0  0  0  0  0  0  0
    4.9526    1.9389    0.3555 H   0  0  0  0  0  0  0  0  0  0  0  0
    5.2077    0.2330    0.7018 H   0  0  0  0  0  0  0  0  0  0  0  0
    2.9424    0.6972    2.6868 H   0  0  0  0  0  0  0  0  0  0  0  0
    6.9313    2.2274    1.5359 H   0  0  0  0  0  0  0  0  0  0  0  0
    7.0311    0.5420    2.0452 H   0  0  0  0  0  0  0  0  0  0  0  0
    8.5799    1.9845    3.2451 H   0  0  0  0  0  0  0  0  0  0  0  0
    7.4803    1.1322    4.3323 H   0  0  0  0  0  0  0  0  0  0  0  0
    7.1631    4.0986    3.5576 H   0  0  0  0  0  0  0  0  0  0  0  0
    8.0139    3.5018    4.9764 H   0  0  0  0  0  0  0  0  0  0  0  0
    5.9014    4.0051    5.8657 H   0  0  0  0  0  0  0  0  0  0  0  0
    5.8746    2.2610    5.6517 H   0  0  0  0  0  0  0  0  0  0  0  0
    4.2573    4.4132    4.2953 H   0  0  0  0  0  0  0  0  0  0  0  0
    3.7710    2.8161    4.8318 H   0  0  0  0  0  0  0  0  0  0  0  0
    5.1221    3.6425    2.2128 H   0  0  0  0  0  0  0  0  0  0  0  0
    3.5231    2.9672    2.4883 H   0  0  0  0  0  0  0  0  0  0  0  0
  1  2  1  0
  1 22  1  0
  1 23  1  0
  1 24  1  0
  2  3  1  0
  2  9  1  0
  2 25  1  1
  3  4  1  0
  3 26  1  0
  3 27  1  0
  4  5  2  0
  4  8  1  0
  5  6  1  0
  5 28  1  0
  6  7  2  0
  6 29  1  0
  7  8  1  0
  7 30  1  0
  9 10  1  0
  9 11  1  0
 10 31  1  0
 10 32  1  0
 10 33  1  0
 11 12  1  0
 11 34  1  0
 11 35  1  0
 12 13  1  1
 12 16  1  0
 12 21  1  0
 13 14  2  0
 13 15  1  0
 15 36  1  0
 16 17  1  0
 16 37  1  0
 16 38  1  0
 17 18  1  0
 17 39  1  0
 17 40  1  0
 18 19  1  0
 18 41  1  0
 18 42  1  0
 19 20  1  0
 19 43  1  0
 19 44  1  0
 20 21  1  0
 20 45  1  0
 20 46  1  0
 21 47  1  0
 21 48  1  0
M  END

