
     RDKit          3D

 37 38  0  0  0  0  0  0  0  0999 V2000
    3.2721   -0.6798    1.3565 O   0  0  0  0  0  0  0  0  0  0  0  0
    2.8413    0.1595    0.5851 C   0  0  0  0  0  0  0  0  0  0  0  0
    1.3617    0.5352    0.6225 C   0  0  0  0  0  0  0  0  0  0  0  0
    1.0821    1.5079   -0.3854 O   0  0  0  0  0  0  0  0  0  0  0  0
   -0.1653    1.9849   -0.4799 C   0  0  0  0  0  0  0  0  0  0  0  0
   -1.0785    1.6425    0.2307 O   0  0  0  0  0  0  0  0  0  0  0  0
   -0.2985    3.0019   -1.5796 C   0  0  0  0  0  0  0  0  0  0  0  0
   -1.5550    3.5867   -1.8082 C   0  0  0  0  0  0  0  0  0  0  0  0
   -1.7376    4.4945   -2.7677 N   0  0  0  0  0  0  0  0  0  0  0  0
   -0.6686    4.8176   -3.4963 C   0  0  0  0  0  0  0  0  0  0  0  0
    0.5867    4.2347   -3.2686 C   0  0  0  0  0  0  0  0  0  0  0  0
    0.7718    3.3281   -2.3120 N   0  0  0  0  0  0  0  0  0  0  0  0
    3.5919    0.8233   -0.3324 N   0  0  0  0  0  0  0  0  0  0  0  0
    5.0112    0.5674   -0.4870 C   0  0  0  0  0  0  0  0  0  0  0  0
    5.2952   -0.6047   -1.4336 C   0  0  0  0  0  0  0  0  0  0  0  0
    7.1178   -0.8059   -1.6226 S   0  0  0  0  0  0  0  0  0  0  0  0
    7.1907   -2.3201   -2.5767 C   0  0  0  0  0  0  0  0  0  0  0  0
    7.5981   -2.2806   -3.9184 C   0  0  0  0  0  0  0  0  0  0  0  0
    7.7112   -3.4565   -4.6643 C   0  0  0  0  0  0  0  0  0  0  0  0
    7.4033   -4.6805   -4.0645 C   0  0  0  0  0  0  0  0  0  0  0  0
    7.5329   -6.1555   -4.9937 Cl  0  0  0  0  0  0  0  0  0  0  0  0
    6.9958   -4.7403   -2.7273 C   0  0  0  0  0  0  0  0  0  0  0  0
    6.9022   -3.5615   -1.9865 C   0  0  0  0  0  0  0  0  0  0  0  0
    1.1133    0.9270    1.6216 H   0  0  0  0  0  0  0  0  0  0  0  0
    0.7557   -0.3712    0.4668 H   0  0  0  0  0  0  0  0  0  0  0  0
   -2.4125    3.3000   -1.1925 H   0  0  0  0  0  0  0  0  0  0  0  0
   -0.8025    5.5627   -4.2888 H   0  0  0  0  0  0  0  0  0  0  0  0
    1.4533    4.5140   -3.8781 H   0  0  0  0  0  0  0  0  0  0  0  0
    3.1201    1.4768   -0.9497 H   0  0  0  0  0  0  0  0  0  0  0  0
    5.4301    0.3408    0.5048 H   0  0  0  0  0  0  0  0  0  0  0  0
    5.4945    1.4849   -0.8590 H   0  0  0  0  0  0  0  0  0  0  0  0
    4.8446   -0.4250   -2.4226 H   0  0  0  0  0  0  0  0  0  0  0  0
    4.8685   -1.5266   -1.0121 H   0  0  0  0  0  0  0  0  0  0  0  0
    7.8273   -1.3180   -4.3806 H   0  0  0  0  0  0  0  0  0  0  0  0
    8.0303   -3.4273   -5.7076 H   0  0  0  0  0  0  0  0  0  0  0  0
    6.7684   -5.7053   -2.2713 H   0  0  0  0  0  0  0  0  0  0  0  0
    6.6089   -3.6051   -0.9350 H   0  0  0  0  0  0  0  0  0  0  0  0
  1  2  2  0
  2  3  1  0
  2 13  1  0
  3  4  1  0
  3 24  1  0
  3 25  1  0
  4  5  1  0
  5  6  2  0
  5  7  1  0
  7  8  2  0
  7 12  1  0
  8  9  1  0
  8 26  1  0
  9 10  2  0
 10 11  1  0
 10 27  1  0
 11 12  2  0
 11 28  1  0
 13 14  1  0
 13 29  1  0
 14 15  1  0
 14 30  1  0
 14 31  1  0
 15 16  1  0
 15 32  1  0
 15 33  1  0
 16 17  1  0
 17 18  2  0
 17 23  1  0
 18 19  1  0
 18 34  1  0
 19 20  2  0
 19 35  1  0
 20 21  1  0
 20 22  1  0
 22 23  2  0
 22 36  1  0
 23 37  1  0
M  END

