
     RDKit          3D

 44 47  0  0  0  0  0  0  0  0999 V2000
    1.0255    1.0261    1.6762 C   0  0  0  0  0  0  0  0  0  0  0  0
    1.7409    0.3663    0.5021 C   0  0  1  0  0  0  0  0  0  0  0  0
    3.0913   -0.7961    1.0093 S   0  0  0  0  0  0  0  0  0  0  0  0
    2.1896   -2.1935    1.6444 C   0  0  0  0  0  0  0  0  0  0  0  0
    0.8709   -2.1972    1.5073 N   0  0  0  0  0  0  0  0  0  0  0  0
    0.1626   -3.2248    1.9966 C   0  0  0  0  0  0  0  0  0  0  0  0
    0.6501   -4.2685    2.6522 N   0  0  0  0  0  0  0  0  0  0  0  0
    1.9740   -4.2675    2.7887 C   0  0  0  0  0  0  0  0  0  0  0  0
    2.8376   -5.5175    3.6569 S   0  0  0  0  0  0  0  0  0  0  0  0
    4.3483   -4.7171    3.3331 C   0  0  0  0  0  0  0  0  0  0  0  0
    4.2438   -3.5618    2.6023 C   0  0  0  0  0  0  0  0  0  0  0  0
    5.4411   -2.7756    2.1964 C   0  0  0  0  0  0  0  0  0  0  0  0
    5.8139   -2.6748    0.8435 C   0  0  0  0  0  0  0  0  0  0  0  0
    6.9619   -1.9792    0.4638 C   0  0  0  0  0  0  0  0  0  0  0  0
    7.7446   -1.3809    1.4494 C   0  0  0  0  0  0  0  0  0  0  0  0
    8.8477   -0.7106    1.0902 F   0  0  0  0  0  0  0  0  0  0  0  0
    7.4094   -1.4657    2.7986 C   0  0  0  0  0  0  0  0  0  0  0  0
    6.2574   -2.1650    3.1643 C   0  0  0  0  0  0  0  0  0  0  0  0
    2.8572   -3.2729    2.2877 C   0  0  0  0  0  0  0  0  0  0  0  0
    0.7538   -0.1846   -0.5498 C   0  0  0  0  0  0  0  0  0  0  0  0
   -0.3959    0.1888   -0.5896 O   0  0  0  0  0  0  0  0  0  0  0  0
    1.3180   -1.0305   -1.4862 N   0  0  0  0  0  0  0  0  0  0  0  0
    0.5701   -1.7152   -2.4569 C   0  0  0  0  0  0  0  0  0  0  0  0
   -0.2595   -1.0680   -3.3866 C   0  0  0  0  0  0  0  0  0  0  0  0
   -0.3113    0.2634   -3.3903 F   0  0  0  0  0  0  0  0  0  0  0  0
   -1.0027   -1.7810   -4.3253 C   0  0  0  0  0  0  0  0  0  0  0  0
   -0.9008   -3.1733   -4.3708 C   0  0  0  0  0  0  0  0  0  0  0  0
   -0.0620   -3.8526   -3.4821 C   0  0  0  0  0  0  0  0  0  0  0  0
    0.6458   -3.1138   -2.5419 C   0  0  0  0  0  0  0  0  0  0  0  0
    1.4589   -3.7411   -1.6720 F   0  0  0  0  0  0  0  0  0  0  0  0
    1.7490    1.5233    2.3380 H   0  0  0  0  0  0  0  0  0  0  0  0
    0.4540    0.2858    2.2511 H   0  0  0  0  0  0  0  0  0  0  0  0
    0.3152    1.7719    1.2916 H   0  0  0  0  0  0  0  0  0  0  0  0
    2.3439    1.1247   -0.0296 H   0  0  0  0  0  0  0  0  0  0  0  0
   -0.9215   -3.1845    1.8436 H   0  0  0  0  0  0  0  0  0  0  0  0
    5.2772   -5.1664    3.6835 H   0  0  0  0  0  0  0  0  0  0  0  0
    5.2018   -3.1565    0.0778 H   0  0  0  0  0  0  0  0  0  0  0  0
    7.2626   -1.8983   -0.5826 H   0  0  0  0  0  0  0  0  0  0  0  0
    8.0470   -0.9833    3.5418 H   0  0  0  0  0  0  0  0  0  0  0  0
    5.9796   -2.2309    4.2187 H   0  0  0  0  0  0  0  0  0  0  0  0
    2.2055   -1.4506   -1.2245 H   0  0  0  0  0  0  0  0  0  0  0  0
   -1.6380   -1.2265   -5.0179 H   0  0  0  0  0  0  0  0  0  0  0  0
   -1.4751   -3.7349   -5.1105 H   0  0  0  0  0  0  0  0  0  0  0  0
    0.0432   -4.9385   -3.4961 H   0  0  0  0  0  0  0  0  0  0  0  0
  1  2  1  0
  1 31  1  0
  1 32  1  0
  1 33  1  0
  2  3  1  0
  2 20  1  0
  2 34  1  6
  3  4  1  0
  4  5  2  0
  4 19  1  0
  5  6  1  0
  6  7  2  0
  6 35  1  0
  7  8  1  0
  8  9  1  0
  8 19  2  0
  9 10  1  0
 10 11  2  0
 10 36  1  0
 11 12  1  0
 11 19  1  0
 12 13  2  0
 12 18  1  0
 13 14  1  0
 13 37  1  0
 14 15  2  0
 14 38  1  0
 15 16  1  0
 15 17  1  0
 17 18  2  0
 17 39  1  0
 18 40  1  0
 20 21  2  0
 20 22  1  0
 22 23  1  0
 22 41  1  0
 23 24  2  0
 23 29  1  0
 24 25  1  0
 24 26  1  0
 26 27  2  0
 26 42  1  0
 27 28  1  0
 27 43  1  0
 28 29  2  0
 28 44  1  0
 29 30  1  0
M  END

