
     RDKit          3D

 41 42  0  0  0  0  0  0  0  0999 V2000
    1.4631    0.2265    1.2868 C   0  0  0  0  0  0  0  0  0  0  0  0
    2.6822    0.1308    0.4033 C   0  0  0  0  0  0  0  0  0  0  0  0
    3.0949    1.2209   -0.3795 C   0  0  0  0  0  0  0  0  0  0  0  0
    4.2427    1.1501   -1.1639 C   0  0  0  0  0  0  0  0  0  0  0  0
    5.0307   -0.0168   -1.2008 C   0  0  0  0  0  0  0  0  0  0  0  0
    6.2176   -0.0893   -1.9892 C   0  0  0  0  0  0  0  0  0  0  0  0
    7.2532   -0.2942   -2.5927 C   0  0  0  0  0  0  0  0  0  0  0  0
    8.5541   -0.8379   -3.0018 C   0  0  0  0  0  0  0  0  0  0  0  0
    8.7007   -2.1733   -2.5758 O   0  0  0  0  0  0  0  0  0  0  0  0
    4.6149   -1.1368   -0.4312 C   0  0  0  0  0  0  0  0  0  0  0  0
    5.4198   -2.4172   -0.4383 C   0  0  0  0  0  0  0  0  0  0  0  0
    6.6454   -2.4413   -0.4134 O   0  0  0  0  0  0  0  0  0  0  0  0
    4.6792   -3.5632   -0.4714 N   0  0  0  0  0  0  0  0  0  0  0  0
    5.3010   -4.8818   -0.5078 C   0  0  0  0  0  0  0  0  0  0  0  0
    5.6106   -5.4698    0.8745 C   0  0  0  0  0  0  0  0  0  0  0  0
    4.3754   -5.7430    1.7388 C   0  0  0  0  0  0  0  0  0  0  0  0
    4.7092   -6.3046    3.1068 C   0  0  1  0  0  0  0  0  0  0  0  0
    3.6993   -7.1128    3.8803 C   0  0  0  0  0  0  0  0  0  0  0  0
    4.9200   -7.7862    3.3012 C   0  0  0  0  0  0  0  0  0  0  0  0
    3.4562   -1.0368    0.3520 C   0  0  0  0  0  0  0  0  0  0  0  0
    0.6182    0.6954    0.7574 H   0  0  0  0  0  0  0  0  0  0  0  0
    1.6664    0.8444    2.1787 H   0  0  0  0  0  0  0  0  0  0  0  0
    1.1371   -0.7633    1.6392 H   0  0  0  0  0  0  0  0  0  0  0  0
    2.5091    2.1446   -0.3701 H   0  0  0  0  0  0  0  0  0  0  0  0
    4.5496    2.0082   -1.7653 H   0  0  0  0  0  0  0  0  0  0  0  0
    9.3508   -0.1796   -2.5915 H   0  0  0  0  0  0  0  0  0  0  0  0
    8.6713   -0.8107   -4.1000 H   0  0  0  0  0  0  0  0  0  0  0  0
    8.2062   -2.2755   -1.7429 H   0  0  0  0  0  0  0  0  0  0  0  0
    3.6770   -3.4858   -0.5860 H   0  0  0  0  0  0  0  0  0  0  0  0
    6.2347   -4.7902   -1.0825 H   0  0  0  0  0  0  0  0  0  0  0  0
    4.6280   -5.5532   -1.0664 H   0  0  0  0  0  0  0  0  0  0  0  0
    6.2949   -4.7818    1.3992 H   0  0  0  0  0  0  0  0  0  0  0  0
    6.1713   -6.4095    0.7281 H   0  0  0  0  0  0  0  0  0  0  0  0
    3.7038   -6.4469    1.2122 H   0  0  0  0  0  0  0  0  0  0  0  0
    3.8008   -4.8067    1.8631 H   0  0  0  0  0  0  0  0  0  0  0  0
    5.3557   -5.6525    3.7069 H   0  0  0  0  0  0  0  0  0  0  0  0
    2.7323   -7.3108    3.4067 H   0  0  0  0  0  0  0  0  0  0  0  0
    3.6433   -6.9795    4.9645 H   0  0  0  0  0  0  0  0  0  0  0  0
    4.7792   -8.4395    2.4338 H   0  0  0  0  0  0  0  0  0  0  0  0
    5.7058   -8.1199    3.9849 H   0  0  0  0  0  0  0  0  0  0  0  0
    3.1583   -1.8904    0.9675 H   0  0  0  0  0  0  0  0  0  0  0  0
  1  2  1  0
  1 21  1  0
  1 22  1  0
  1 23  1  0
  2  3  2  0
  2 20  1  0
  3  4  1  0
  3 24  1  0
  4  5  2  0
  4 25  1  0
  5  6  1  0
  5 10  1  0
  6  7  3  0
  7  8  1  0
  8  9  1  0
  8 26  1  0
  8 27  1  0
  9 28  1  0
 10 11  1  0
 10 20  2  0
 11 12  2  0
 11 13  1  0
 13 14  1  0
 13 29  1  0
 14 15  1  0
 14 30  1  0
 14 31  1  0
 15 16  1  0
 15 32  1  0
 15 33  1  0
 16 17  1  0
 16 34  1  0
 16 35  1  0
 17 18  1  0
 17 19  1  0
 17 36  1  1
 18 19  1  0
 18 37  1  0
 18 38  1  0
 19 39  1  0
 19 40  1  0
 20 41  1  0
M  END

