
     RDKit          3D

 33 34  0  0  0  0  0  0  0  0999 V2000
    1.6996    0.1516   -1.4466 O   0  0  0  0  0  0  0  0  0  0  0  0
    2.2054    0.3447   -0.3540 C   0  0  0  0  0  0  0  0  0  0  0  0
    2.7907   -0.7876    0.4767 C   0  0  0  0  0  0  0  0  0  0  0  0
    1.6951   -1.6729    1.1316 C   0  0  1  0  0  0  0  0  0  0  0  0
    0.9029   -2.5375    0.1371 C   0  0  0  0  0  0  0  0  0  0  0  0
    1.7063   -3.7561   -0.3357 C   0  0  0  0  0  0  0  0  0  0  0  0
    2.2695   -4.5178    0.8692 C   0  0  0  0  0  0  0  0  0  0  0  0
    3.0403   -3.5631    1.7783 C   0  0  0  0  0  0  0  0  0  0  0  0
    2.2513   -2.4542    2.1821 O   0  0  0  0  0  0  0  0  0  0  0  0
    2.2659    1.5823    0.2532 N   0  0  0  0  0  0  0  0  0  0  0  0
    1.7922    2.8250   -0.2065 C   0  0  0  0  0  0  0  0  0  0  0  0
    1.9916    3.9453    0.6214 C   0  0  0  0  0  0  0  0  0  0  0  0
    1.5456    5.2034    0.2236 C   0  0  0  0  0  0  0  0  0  0  0  0
    0.8939    5.3782   -1.0013 C   0  0  0  0  0  0  0  0  0  0  0  0
    0.7026    4.2582   -1.8140 C   0  0  0  0  0  0  0  0  0  0  0  0
   -0.2863    4.4934   -3.6853 I   0  0  0  0  0  0  0  0  0  0  0  0
    1.1379    2.9842   -1.4429 C   0  0  0  0  0  0  0  0  0  0  0  0
    3.4311   -0.4084    1.2885 H   0  0  0  0  0  0  0  0  0  0  0  0
    3.4228   -1.3820   -0.1996 H   0  0  0  0  0  0  0  0  0  0  0  0
    0.9946   -0.9933    1.6451 H   0  0  0  0  0  0  0  0  0  0  0  0
    0.5872   -1.9182   -0.7153 H   0  0  0  0  0  0  0  0  0  0  0  0
   -0.0084   -2.8863    0.6524 H   0  0  0  0  0  0  0  0  0  0  0  0
    2.5351   -3.4338   -0.9916 H   0  0  0  0  0  0  0  0  0  0  0  0
    1.0690   -4.4108   -0.9520 H   0  0  0  0  0  0  0  0  0  0  0  0
    2.9301   -5.3423    0.5516 H   0  0  0  0  0  0  0  0  0  0  0  0
    1.4419   -4.9679    1.4454 H   0  0  0  0  0  0  0  0  0  0  0  0
    3.9643   -3.2222    1.2662 H   0  0  0  0  0  0  0  0  0  0  0  0
    3.3534   -4.0601    2.7095 H   0  0  0  0  0  0  0  0  0  0  0  0
    2.7211    1.6092    1.1577 H   0  0  0  0  0  0  0  0  0  0  0  0
    2.4994    3.8262    1.5830 H   0  0  0  0  0  0  0  0  0  0  0  0
    1.7068    6.0647    0.8768 H   0  0  0  0  0  0  0  0  0  0  0  0
    0.5457    6.3644   -1.3105 H   0  0  0  0  0  0  0  0  0  0  0  0
    0.9871    2.1164   -2.0791 H   0  0  0  0  0  0  0  0  0  0  0  0
  1  2  2  0
  2  3  1  0
  2 10  1  0
  3  4  1  0
  3 18  1  0
  3 19  1  0
  4  5  1  0
  4  9  1  0
  4 20  1  1
  5  6  1  0
  5 21  1  0
  5 22  1  0
  6  7  1  0
  6 23  1  0
  6 24  1  0
  7  8  1  0
  7 25  1  0
  7 26  1  0
  8  9  1  0
  8 27  1  0
  8 28  1  0
 10 11  1  0
 10 29  1  0
 11 12  2  0
 11 17  1  0
 12 13  1  0
 12 30  1  0
 13 14  2  0
 13 31  1  0
 14 15  1  0
 14 32  1  0
 15 16  1  0
 15 17  2  0
 17 33  1  0
M  END

