
     RDKit          3D

 40 41  0  0  0  0  0  0  0  0999 V2000
    8.9541   -2.1958    1.5223 C   0  0  0  0  0  0  0  0  0  0  0  0
    8.2981   -0.8457    1.2744 C   0  0  1  0  0  0  0  0  0  0  0  0
    8.7136   -0.1991   -0.0423 C   0  0  0  0  0  0  0  0  0  0  0  0
    6.8708   -1.0816    1.2813 O   0  0  0  0  0  0  0  0  0  0  0  0
    6.0230   -0.0802    1.6307 C   0  0  0  0  0  0  0  0  0  0  0  0
    6.4793    1.1075    1.9610 N   0  0  0  0  0  0  0  0  0  0  0  0
    5.6012    2.0620    2.3129 C   0  0  0  0  0  0  0  0  0  0  0  0
    4.2308    1.8392    2.3364 C   0  0  0  0  0  0  0  0  0  0  0  0
    3.7356    0.5738    1.9824 C   0  0  0  0  0  0  0  0  0  0  0  0
    4.6398   -0.4241    1.6164 C   0  0  0  0  0  0  0  0  0  0  0  0
    4.3244   -1.7320    1.2354 N   0  0  0  0  0  0  0  0  0  0  0  0
    3.0643   -2.3032    1.1641 C   0  0  0  0  0  0  0  0  0  0  0  0
    2.0292   -1.7184    1.4526 O   0  0  0  0  0  0  0  0  0  0  0  0
    3.0587   -3.6114    0.7335 N   0  0  0  0  0  0  0  0  0  0  0  0
    1.7965   -4.3428    0.6534 C   0  0  0  0  0  0  0  0  0  0  0  0
    2.2467   -5.7994    0.5128 C   0  0  0  0  0  0  0  0  0  0  0  0
    3.5769   -5.6791   -0.2697 C   0  0  2  0  0  0  0  0  0  0  0  0
    4.4882   -6.8964   -0.1684 C   0  0  0  0  0  0  0  0  0  0  0  0
    5.6046   -6.8758    0.2712 O   0  0  0  0  0  0  0  0  0  0  0  0
    3.9496   -8.0527   -0.6173 O   0  0  0  0  0  0  0  0  0  0  0  0
    4.2083   -4.3965    0.2931 C   0  0  0  0  0  0  0  0  0  0  0  0
   10.0489   -2.0857    1.5597 H   0  0  0  0  0  0  0  0  0  0  0  0
    8.7087   -2.9075    0.7173 H   0  0  0  0  0  0  0  0  0  0  0  0
    8.6171   -2.6254    2.4778 H   0  0  0  0  0  0  0  0  0  0  0  0
    8.5208   -0.1535    2.1008 H   0  0  0  0  0  0  0  0  0  0  0  0
    8.4508   -0.8468   -0.8945 H   0  0  0  0  0  0  0  0  0  0  0  0
    9.8027   -0.0333   -0.0576 H   0  0  0  0  0  0  0  0  0  0  0  0
    8.2186    0.7742   -0.1676 H   0  0  0  0  0  0  0  0  0  0  0  0
    6.0223    3.0366    2.5813 H   0  0  0  0  0  0  0  0  0  0  0  0
    3.5443    2.6375    2.6259 H   0  0  0  0  0  0  0  0  0  0  0  0
    2.6716    0.3468    1.9881 H   0  0  0  0  0  0  0  0  0  0  0  0
    5.1421   -2.2956    1.0324 H   0  0  0  0  0  0  0  0  0  0  0  0
    1.1999   -4.0168   -0.2198 H   0  0  0  0  0  0  0  0  0  0  0  0
    1.1823   -4.1582    1.5464 H   0  0  0  0  0  0  0  0  0  0  0  0
    1.4914   -6.4219    0.0080 H   0  0  0  0  0  0  0  0  0  0  0  0
    2.4378   -6.2397    1.5054 H   0  0  0  0  0  0  0  0  0  0  0  0
    3.3416   -5.5305   -1.3399 H   0  0  0  0  0  0  0  0  0  0  0  0
    3.0479   -7.9113   -0.9393 H   0  0  0  0  0  0  0  0  0  0  0  0
    4.7988   -3.8691   -0.4757 H   0  0  0  0  0  0  0  0  0  0  0  0
    4.8939   -4.6487    1.1221 H   0  0  0  0  0  0  0  0  0  0  0  0
  1  2  1  0
  1 22  1  0
  1 23  1  0
  1 24  1  0
  2  3  1  0
  2  4  1  0
  2 25  1  1
  3 26  1  0
  3 27  1  0
  3 28  1  0
  4  5  1  0
  5  6  2  0
  5 10  1  0
  6  7  1  0
  7  8  2  0
  7 29  1  0
  8  9  1  0
  8 30  1  0
  9 10  2  0
  9 31  1  0
 10 11  1  0
 11 12  1  0
 11 32  1  0
 12 13  2  0
 12 14  1  0
 14 15  1  0
 14 21  1  0
 15 16  1  0
 15 33  1  0
 15 34  1  0
 16 17  1  0
 16 35  1  0
 16 36  1  0
 17 18  1  0
 17 21  1  0
 17 37  1  6
 18 19  2  0
 18 20  1  0
 20 38  1  0
 21 39  1  0
 21 40  1  0
M  END

