
     RDKit          3D

 26 27  0  0  0  0  0  0  0  0999 V2000
    2.6078    1.3827   -0.1223 O   0  0  0  0  0  0  0  0  0  0  0  0
    2.4455    0.1773   -0.0005 N   0  0  0  0  0  0  0  0  0  0  0  0
    1.8783   -0.3549    0.9426 O   0  0  0  0  0  0  0  0  0  0  0  0
    2.9732   -0.6936   -1.0611 C   0  0  0  0  0  0  0  0  0  0  0  0
    3.6094   -0.1185   -2.1606 C   0  0  0  0  0  0  0  0  0  0  0  0
    4.0854   -0.9590   -3.1647 C   0  0  0  0  0  0  0  0  0  0  0  0
    3.9289   -2.3496   -3.0790 C   0  0  0  0  0  0  0  0  0  0  0  0
    4.3816   -3.1857   -4.0342 O   0  0  0  0  0  0  0  0  0  0  0  0
    3.2902   -2.9329   -1.9454 C   0  0  0  0  0  0  0  0  0  0  0  0
    3.1263   -4.3138   -1.9319 N   0  0  0  0  0  0  0  0  0  0  0  0
    3.1638   -4.9877   -0.8362 C   0  0  0  0  0  0  0  0  0  0  0  0
    2.9127   -6.4044   -0.8256 C   0  0  0  0  0  0  0  0  0  0  0  0
    2.9031   -7.3375    0.2157 C   0  0  0  0  0  0  0  0  0  0  0  0
    2.5962   -8.5975   -0.3495 C   0  0  0  0  0  0  0  0  0  0  0  0
    2.4264   -8.4026   -1.7177 C   0  0  0  0  0  0  0  0  0  0  0  0
    2.6175   -7.0835   -1.9861 N   0  0  0  0  0  0  0  0  0  0  0  0
    2.5760   -6.6154   -2.8852 H   0  0  0  0  0  0  0  0  0  0  0  0
    2.8091   -2.0758   -0.9462 C   0  0  0  0  0  0  0  0  0  0  0  0
    3.7150    0.9639   -2.2179 H   0  0  0  0  0  0  0  0  0  0  0  0
    4.5870   -0.5322   -4.0388 H   0  0  0  0  0  0  0  0  0  0  0  0
    4.7888   -2.6718   -4.7450 H   0  0  0  0  0  0  0  0  0  0  0  0
    3.4037   -4.5295    0.1414 H   0  0  0  0  0  0  0  0  0  0  0  0
    3.0974   -7.1156    1.2636 H   0  0  0  0  0  0  0  0  0  0  0  0
    2.5059   -9.5473    0.1734 H   0  0  0  0  0  0  0  0  0  0  0  0
    2.1853   -9.1141   -2.5050 H   0  0  0  0  0  0  0  0  0  0  0  0
    2.2746   -2.4694   -0.0827 H   0  0  0  0  0  0  0  0  0  0  0  0
  1  2  2  0
  2  3  1  0
  2  4  1  0
  4  5  2  0
  4 18  1  0
  5  6  1  0
  5 19  1  0
  6  7  2  0
  6 20  1  0
  7  8  1  0
  7  9  1  0
  8 21  1  0
  9 10  1  0
  9 18  2  0
 10 11  2  0
 11 12  1  0
 11 22  1  0
 12 13  2  0
 12 16  1  0
 13 14  1  0
 13 23  1  0
 14 15  2  0
 14 24  1  0
 15 16  1  0
 15 25  1  0
 16 17  1  0
 18 26  1  0
M  CHG  2   2   1   3  -1
M  END

