
     RDKit          3D

 57 57  0  0  0  0  0  0  0  0999 V2000
    8.6748    2.8206   -4.9133 C   0  0  0  0  0  0  0  0  0  0  0  0
    8.4680    2.1356   -3.5616 C   0  0  0  0  0  0  0  0  0  0  0  0
    8.9427    0.6794   -3.5327 C   0  0  0  0  0  0  0  0  0  0  0  0
    8.7395   -0.0132   -2.1820 C   0  0  0  0  0  0  0  0  0  0  0  0
    9.2144   -1.4690   -2.1530 C   0  0  0  0  0  0  0  0  0  0  0  0
    9.0108   -2.1589   -0.8008 C   0  0  0  0  0  0  0  0  0  0  0  0
    9.4874   -3.6137   -0.7733 C   0  0  0  0  0  0  0  0  0  0  0  0
    9.2787   -4.2975    0.5919 C   0  0  0  0  0  0  0  0  0  0  0  0
    9.7540   -5.7304    0.6205 C   0  0  0  0  0  0  0  0  0  0  0  0
   11.0906   -6.0434    0.9283 C   0  0  0  0  0  0  0  0  0  0  0  0
   11.5408   -7.3585    0.9213 C   0  0  0  0  0  0  0  0  0  0  0  0
   10.6670   -8.4182    0.6072 C   0  0  0  0  0  0  0  0  0  0  0  0
   11.2280   -9.7961    0.6150 C   0  0  0  0  0  0  0  0  0  0  0  0
   12.4192   -9.9622    0.8656 O   0  0  0  0  0  0  0  0  0  0  0  0
   10.3529  -10.9697    0.1779 C   0  0  0  0  0  0  0  0  0  0  0  0
   10.5622  -12.3231    0.9035 C   0  0  1  0  0  0  0  0  0  0  0  0
    9.4312  -13.1726    0.5071 N   0  0  0  0  0  0  0  0  0  0  0  0
    9.2627  -14.4817    0.8696 C   0  0  0  0  0  0  0  0  0  0  0  0
    8.3835  -15.3051   -0.0408 C   0  0  0  0  0  0  0  0  0  0  0  0
    9.7758  -14.9775    1.8701 O   0  0  0  0  0  0  0  0  0  0  0  0
   11.8915  -13.0564    0.4596 C   0  0  0  0  0  0  0  0  0  0  0  0
   11.8393  -14.1236   -0.0974 O   0  0  0  0  0  0  0  0  0  0  0  0
   13.0225  -12.4474    0.7462 O   0  0  0  0  0  0  0  0  0  0  0  0
   10.5487  -12.0273    2.4515 C   0  0  0  0  0  0  0  0  0  0  0  0
   10.4720  -10.8851    2.8417 O   0  0  0  0  0  0  0  0  0  0  0  0
   10.6520  -13.0552    3.2572 O   0  0  0  0  0  0  0  0  0  0  0  0
    9.3294   -8.1100    0.3011 C   0  0  0  0  0  0  0  0  0  0  0  0
    8.8858   -6.7883    0.3063 C   0  0  0  0  0  0  0  0  0  0  0  0
    8.3226    3.8644   -4.8971 H   0  0  0  0  0  0  0  0  0  0  0  0
    8.1279    2.2976   -5.7159 H   0  0  0  0  0  0  0  0  0  0  0  0
    9.7406    2.8338   -5.1974 H   0  0  0  0  0  0  0  0  0  0  0  0
    7.3975    2.1733   -3.2887 H   0  0  0  0  0  0  0  0  0  0  0  0
    8.9965    2.7046   -2.7749 H   0  0  0  0  0  0  0  0  0  0  0  0
   10.0140    0.6403   -3.8056 H   0  0  0  0  0  0  0  0  0  0  0  0
    8.4141    0.1085   -4.3191 H   0  0  0  0  0  0  0  0  0  0  0  0
    7.6682    0.0261   -1.9095 H   0  0  0  0  0  0  0  0  0  0  0  0
    9.2680    0.5580   -1.3962 H   0  0  0  0  0  0  0  0  0  0  0  0
   10.2856   -1.5092   -2.4250 H   0  0  0  0  0  0  0  0  0  0  0  0
    8.6858   -2.0415   -2.9378 H   0  0  0  0  0  0  0  0  0  0  0  0
    7.9397   -2.1204   -0.5280 H   0  0  0  0  0  0  0  0  0  0  0  0
    9.5393   -1.5873   -0.0154 H   0  0  0  0  0  0  0  0  0  0  0  0
   10.5584   -3.6590   -1.0402 H   0  0  0  0  0  0  0  0  0  0  0  0
    8.9594   -4.1930   -1.5519 H   0  0  0  0  0  0  0  0  0  0  0  0
    8.2076   -4.2600    0.8532 H   0  0  0  0  0  0  0  0  0  0  0  0
    9.8106   -3.7202    1.3671 H   0  0  0  0  0  0  0  0  0  0  0  0
   11.7851   -5.2384    1.1850 H   0  0  0  0  0  0  0  0  0  0  0  0
   12.5768   -7.5974    1.1655 H   0  0  0  0  0  0  0  0  0  0  0  0
   10.5299  -11.1066   -0.9055 H   0  0  0  0  0  0  0  0  0  0  0  0
    9.2963  -10.7076    0.3032 H   0  0  0  0  0  0  0  0  0  0  0  0
    9.0357  -12.9339   -0.3957 H   0  0  0  0  0  0  0  0  0  0  0  0
    7.6213  -14.7046   -0.5592 H   0  0  0  0  0  0  0  0  0  0  0  0
    7.9018  -16.0979    0.5451 H   0  0  0  0  0  0  0  0  0  0  0  0
    9.0331  -15.7778   -0.7958 H   0  0  0  0  0  0  0  0  0  0  0  0
   12.8845  -11.4694    0.9283 H   0  0  0  0  0  0  0  0  0  0  0  0
   10.4540  -13.9226    2.7739 H   0  0  0  0  0  0  0  0  0  0  0  0
    8.6126   -8.8966    0.0623 H   0  0  0  0  0  0  0  0  0  0  0  0
    7.8395   -6.5735    0.0721 H   0  0  0  0  0  0  0  0  0  0  0  0
  1  2  1  0
  1 29  1  0
  1 30  1  0
  1 31  1  0
  2  3  1  0
  2 32  1  0
  2 33  1  0
  3  4  1  0
  3 34  1  0
  3 35  1  0
  4  5  1  0
  4 36  1  0
  4 37  1  0
  5  6  1  0
  5 38  1  0
  5 39  1  0
  6  7  1  0
  6 40  1  0
  6 41  1  0
  7  8  1  0
  7 42  1  0
  7 43  1  0
  8  9  1  0
  8 44  1  0
  8 45  1  0
  9 10  2  0
  9 28  1  0
 10 11  1  0
 10 46  1  0
 11 12  2  0
 11 47  1  0
 12 13  1  0
 12 27  1  0
 13 14  2  0
 13 15  1  0
 15 16  1  0
 15 48  1  0
 15 49  1  0
 16 17  1  0
 16 21  1  6
 16 24  1  0
 17 18  1  0
 17 50  1  0
 18 19  1  0
 18 20  2  0
 19 51  1  0
 19 52  1  0
 19 53  1  0
 21 22  2  0
 21 23  1  0
 23 54  1  0
 24 25  2  0
 24 26  1  0
 26 55  1  0
 27 28  2  0
 27 56  1  0
 28 57  1  0
M  END

