
     RDKit          3D

 51 53  0  0  0  0  0  0  0  0999 V2000
    2.4782   -1.1046    7.4863 C   0  0  0  0  0  0  0  0  0  0  0  0
    1.5706   -1.8400    6.6296 N   0  0  0  0  0  0  0  0  0  0  0  0
    0.1504   -1.8418    6.9180 C   0  0  0  0  0  0  0  0  0  0  0  0
    2.0600   -2.5547    5.5552 C   0  0  0  0  0  0  0  0  0  0  0  0
    3.4459   -2.5796    5.2525 C   0  0  0  0  0  0  0  0  0  0  0  0
    3.9277   -3.3060    4.1668 C   0  0  0  0  0  0  0  0  0  0  0  0
    3.0659   -4.0306    3.3337 C   0  0  0  0  0  0  0  0  0  0  0  0
    3.6044   -4.7414    2.2118 N   0  0  0  0  0  0  0  0  0  0  0  0
    3.5088   -6.4267    2.0847 S   0  0  1  0  0  0  0  0  0  0  0  0
    2.4504   -6.9586    2.9476 O   0  0  0  0  0  0  0  0  0  0  0  0
    3.5206   -6.6978    0.6426 O   0  0  0  0  0  0  0  0  0  0  0  0
    5.1147   -6.9876    2.7387 C   0  0  1  0  0  0  0  0  0  0  0  0
    5.8476   -6.3821    2.1921 H   0  0  0  0  0  0  0  0  0  0  0  0
    5.2603   -6.8901    4.2749 C   0  0  0  0  0  0  0  0  0  0  0  0
    5.9762   -8.0587    4.6197 O   0  0  0  0  0  0  0  0  0  0  0  0
    5.2953   -9.0588    3.8288 N   0  0  0  0  0  0  0  0  0  0  0  0
    5.9043  -10.3428    4.0820 C   0  0  0  0  0  0  0  0  0  0  0  0
    5.3123   -8.5078    2.4573 C   0  0  2  0  0  0  0  0  0  0  0  0
    4.4371   -8.9217    1.9343 H   0  0  0  0  0  0  0  0  0  0  0  0
    6.5462   -8.7801    1.6089 C   0  0  0  0  0  0  0  0  0  0  0  0
    6.3985   -9.3312    0.3287 C   0  0  0  0  0  0  0  0  0  0  0  0
    7.5099   -9.5865   -0.4774 C   0  0  0  0  0  0  0  0  0  0  0  0
    8.7937   -9.2979   -0.0054 C   0  0  0  0  0  0  0  0  0  0  0  0
    9.9989   -9.5220   -0.8834 C   0  0  1  0  0  0  0  0  0  0  0  0
    9.7768  -10.4673   -1.8133 F   0  0  0  0  0  0  0  0  0  0  0  0
   10.3496   -8.3991   -1.5418 F   0  0  0  0  0  0  0  0  0  0  0  0
   11.0735   -9.9025   -0.1680 F   0  0  0  0  0  0  0  0  0  0  0  0
    8.9571   -8.7520    1.2746 C   0  0  0  0  0  0  0  0  0  0  0  0
    7.8434   -8.4901    2.0709 C   0  0  0  0  0  0  0  0  0  0  0  0
    1.6935   -4.0135    3.6229 C   0  0  0  0  0  0  0  0  0  0  0  0
    1.1972   -3.2967    4.7060 C   0  0  0  0  0  0  0  0  0  0  0  0
    1.9073   -0.6065    8.2802 H   0  0  0  0  0  0  0  0  0  0  0  0
    3.0345   -0.3247    6.9338 H   0  0  0  0  0  0  0  0  0  0  0  0
    3.2230   -1.7632    7.9710 H   0  0  0  0  0  0  0  0  0  0  0  0
   -0.0428   -1.2182    7.8001 H   0  0  0  0  0  0  0  0  0  0  0  0
   -0.2324   -2.8567    7.1334 H   0  0  0  0  0  0  0  0  0  0  0  0
   -0.4455   -1.4325    6.0814 H   0  0  0  0  0  0  0  0  0  0  0  0
    4.1564   -2.0274    5.8659 H   0  0  0  0  0  0  0  0  0  0  0  0
    4.9980   -3.3051    3.9460 H   0  0  0  0  0  0  0  0  0  0  0  0
    3.4313   -4.3566    1.2829 H   0  0  0  0  0  0  0  0  0  0  0  0
    4.2656   -6.8823    4.7510 H   0  0  0  0  0  0  0  0  0  0  0  0
    5.8497   -6.0235    4.6026 H   0  0  0  0  0  0  0  0  0  0  0  0
    5.7424  -10.6038    5.1380 H   0  0  0  0  0  0  0  0  0  0  0  0
    6.9886  -10.3862    3.8641 H   0  0  0  0  0  0  0  0  0  0  0  0
    5.3897  -11.0893    3.4583 H   0  0  0  0  0  0  0  0  0  0  0  0
    5.3972   -9.5543   -0.0486 H   0  0  0  0  0  0  0  0  0  0  0  0
    7.3789  -10.0150   -1.4726 H   0  0  0  0  0  0  0  0  0  0  0  0
    9.9598   -8.5355    1.6488 H   0  0  0  0  0  0  0  0  0  0  0  0
    7.9758   -8.0650    3.0677 H   0  0  0  0  0  0  0  0  0  0  0  0
    1.0083   -4.5884    2.9975 H   0  0  0  0  0  0  0  0  0  0  0  0
    0.1247   -3.3193    4.8934 H   0  0  0  0  0  0  0  0  0  0  0  0
  1  2  1  0
  1 32  1  0
  1 33  1  0
  1 34  1  0
  2  3  1  0
  2  4  1  0
  3 35  1  0
  3 36  1  0
  3 37  1  0
  4  5  2  0
  4 31  1  0
  5  6  1  0
  5 38  1  0
  6  7  2  0
  6 39  1  0
  7  8  1  0
  7 30  1  0
  9  8  1  6
  8 40  1  0
  9 10  2  0
  9 11  2  0
  9 12  1  0
 12 13  1  6
 12 14  1  0
 12 18  1  0
 14 15  1  0
 14 41  1  0
 14 42  1  0
 15 16  1  0
 16 17  1  0
 16 18  1  0
 17 43  1  0
 17 44  1  0
 17 45  1  0
 18 19  1  6
 18 20  1  0
 20 21  2  0
 20 29  1  0
 21 22  1  0
 21 46  1  0
 22 23  2  0
 22 47  1  0
 23 24  1  0
 23 28  1  0
 24 25  1  6
 24 26  1  0
 24 27  1  0
 28 29  2  0
 28 48  1  0
 29 49  1  0
 30 31  2  0
 30 50  1  0
 31 51  1  0
M  END

