
     RDKit          3D

 48 50  0  0  0  0  0  0  0  0999 V2000
    7.6653   -3.2487    2.3096 C   0  0  0  0  0  0  0  0  0  0  0  0
    7.6675   -3.4512    0.8041 C   0  0  0  0  0  0  0  0  0  0  0  0
    8.0719   -4.4787    0.2882 O   0  0  0  0  0  0  0  0  0  0  0  0
    7.1689   -2.4043    0.0698 N   0  0  0  0  0  0  0  0  0  0  0  0
    7.1245   -2.4258   -1.3727 C   0  0  0  0  0  0  0  0  0  0  0  0
    8.0096   -1.3549   -1.9937 C   0  0  1  0  0  0  0  0  0  0  0  0
    9.0487   -1.4898   -1.6473 H   0  0  0  0  0  0  0  0  0  0  0  0
    7.9452   -1.2742   -3.5276 C   0  0  0  0  0  0  0  0  0  0  0  0
    7.8670    0.1593   -3.7529 N   0  0  0  0  0  0  0  0  0  0  0  0
    7.9122    0.7294   -5.0473 C   0  0  0  0  0  0  0  0  0  0  0  0
    7.9322    2.1190   -5.2625 C   0  0  0  0  0  0  0  0  0  0  0  0
    7.9851    2.6318   -6.5577 C   0  0  0  0  0  0  0  0  0  0  0  0
    8.0338    1.8049   -7.6980 C   0  0  0  0  0  0  0  0  0  0  0  0
    8.1264    2.3177   -8.9790 N   0  0  0  0  0  0  0  0  0  0  0  0
    7.8419    3.6945   -9.3721 C   0  0  0  0  0  0  0  0  0  0  0  0
    7.6209    3.1853  -10.8235 C   0  0  2  0  0  0  0  0  0  0  0  0
    6.4608    3.6418  -11.5405 N   0  0  0  0  0  0  0  0  0  0  0  0
    6.5180    4.2065  -12.7789 C   0  0  0  0  0  0  0  0  0  0  0  0
    7.5549    4.3849  -13.4003 O   0  0  0  0  0  0  0  0  0  0  0  0
    5.1832    4.6301  -13.4024 C   0  0  0  0  0  0  0  0  0  0  0  0
    5.3976    5.1945  -14.6525 O   0  0  0  0  0  0  0  0  0  0  0  0
    7.6050    1.7515  -10.2280 C   0  0  0  0  0  0  0  0  0  0  0  0
    8.0212    0.4210   -7.4479 C   0  0  0  0  0  0  0  0  0  0  0  0
    8.0784   -0.4295   -8.4962 F   0  0  0  0  0  0  0  0  0  0  0  0
    7.9559   -0.1166   -6.1709 C   0  0  0  0  0  0  0  0  0  0  0  0
    7.5721    0.8364   -2.5788 C   0  0  0  0  0  0  0  0  0  0  0  0
    7.3456    2.0052   -2.4186 O   0  0  0  0  0  0  0  0  0  0  0  0
    7.5707   -0.0617   -1.5513 O   0  0  0  0  0  0  0  0  0  0  0  0
    7.0188   -4.0141    2.7656 H   0  0  0  0  0  0  0  0  0  0  0  0
    7.3221   -2.2530    2.6259 H   0  0  0  0  0  0  0  0  0  0  0  0
    8.6839   -3.4201    2.6883 H   0  0  0  0  0  0  0  0  0  0  0  0
    6.8922   -1.5480    0.5353 H   0  0  0  0  0  0  0  0  0  0  0  0
    6.0900   -2.2829   -1.7348 H   0  0  0  0  0  0  0  0  0  0  0  0
    7.4673   -3.4229   -1.6879 H   0  0  0  0  0  0  0  0  0  0  0  0
    7.0553   -1.7943   -3.9310 H   0  0  0  0  0  0  0  0  0  0  0  0
    8.8374   -1.7134   -3.9996 H   0  0  0  0  0  0  0  0  0  0  0  0
    7.8907    2.7952   -4.4122 H   0  0  0  0  0  0  0  0  0  0  0  0
    8.0006    3.7155   -6.6897 H   0  0  0  0  0  0  0  0  0  0  0  0
    8.6603    4.4165   -9.2095 H   0  0  0  0  0  0  0  0  0  0  0  0
    6.9147    4.1058   -8.9199 H   0  0  0  0  0  0  0  0  0  0  0  0
    8.4873    3.3668  -11.4710 H   0  0  0  0  0  0  0  0  0  0  0  0
    5.5514    3.5353  -11.1028 H   0  0  0  0  0  0  0  0  0  0  0  0
    4.6841    5.3409  -12.7105 H   0  0  0  0  0  0  0  0  0  0  0  0
    4.5275    3.7355  -13.4605 H   0  0  0  0  0  0  0  0  0  0  0  0
    6.3640    5.1501  -14.7844 H   0  0  0  0  0  0  0  0  0  0  0  0
    8.2436    0.9966  -10.7113 H   0  0  0  0  0  0  0  0  0  0  0  0
    6.5798    1.3394  -10.1365 H   0  0  0  0  0  0  0  0  0  0  0  0
    7.9441   -1.2031   -6.0919 H   0  0  0  0  0  0  0  0  0  0  0  0
  1  2  1  0
  1 29  1  0
  1 30  1  0
  1 31  1  0
  2  3  2  0
  2  4  1  0
  4  5  1  0
  4 32  1  0
  5  6  1  0
  5 33  1  0
  5 34  1  0
  6  7  1  6
  6  8  1  0
  6 28  1  0
  8  9  1  0
  8 35  1  0
  8 36  1  0
  9 10  1  0
  9 26  1  0
 10 11  2  0
 10 25  1  0
 11 12  1  0
 11 37  1  0
 12 13  2  0
 12 38  1  0
 13 14  1  0
 13 23  1  0
 14 15  1  0
 14 22  1  0
 15 16  1  0
 15 39  1  0
 15 40  1  0
 16 17  1  0
 16 22  1  0
 16 41  1  6
 17 18  1  0
 17 42  1  0
 18 19  2  0
 18 20  1  0
 20 21  1  0
 20 43  1  0
 20 44  1  0
 21 45  1  0
 22 46  1  0
 22 47  1  0
 23 24  1  0
 23 25  2  0
 25 48  1  0
 26 27  2  0
 26 28  1  0
M  END

