
     RDKit          3D

 11 11  0  0  0  0  0  0  0  0999 V2000
    1.1871   -0.0222   -0.6466 O   0  0  0  0  0  0  0  0  0  0  0  0
    2.2592   -0.0935   -0.0630 N   0  0  0  0  0  0  0  0  0  0  0  0
    2.8627   -1.1118    0.2201 O   0  0  0  0  0  0  0  0  0  0  0  0
    2.8450    1.1644    0.3237 C   0  0  0  0  0  0  0  0  0  0  0  0
    2.3937    2.4441    0.1399 C   0  0  0  0  0  0  0  0  0  0  0  0
    3.3962    3.2735    0.7297 C   0  0  0  0  0  0  0  0  0  0  0  0
    4.3553    2.4227    1.2164 C   0  0  0  0  0  0  0  0  0  0  0  0
    4.0230    1.1375    0.9703 O   0  0  0  0  0  0  0  0  0  0  0  0
    1.4686    2.7268   -0.3541 H   0  0  0  0  0  0  0  0  0  0  0  0
    3.4040    4.3599    0.7863 H   0  0  0  0  0  0  0  0  0  0  0  0
    5.2943    2.5820    1.7407 H   0  0  0  0  0  0  0  0  0  0  0  0
  1  2  2  0
  2  3  1  0
  2  4  1  0
  4  5  2  0
  4  8  1  0
  5  6  1  0
  5  9  1  0
  6  7  2  0
  6 10  1  0
  7  8  1  0
  7 11  1  0
M  CHG  2   2   1   3  -1
M  END

