
     RDKit          3D

 51 54  0  0  0  0  0  0  0  0999 V2000
   -0.6943   -4.2977   -1.9554 C   0  0  0  0  0  0  0  0  0  0  0  0
    0.3385   -3.3350   -1.9554 O   0  0  0  0  0  0  0  0  0  0  0  0
    0.3776   -2.3870   -2.9305 C   0  0  0  0  0  0  0  0  0  0  0  0
   -0.5498   -2.2651   -3.9702 C   0  0  0  0  0  0  0  0  0  0  0  0
   -0.3998   -1.2479   -4.9212 C   0  0  0  0  0  0  0  0  0  0  0  0
    0.6586   -0.3444   -4.8291 C   0  0  0  0  0  0  0  0  0  0  0  0
    1.5746   -0.4452   -3.7767 C   0  0  0  0  0  0  0  0  0  0  0  0
    1.4507   -1.4673   -2.8313 C   0  0  0  0  0  0  0  0  0  0  0  0
    2.3387   -1.5975   -1.7323 N   0  0  0  0  0  0  0  0  0  0  0  0
    4.0000   -1.7863   -1.9051 S   0  0  1  0  0  0  0  0  0  0  0  0
    4.4623   -0.7832   -2.8652 O   0  0  0  0  0  0  0  0  0  0  0  0
    4.5353   -1.8629   -0.5537 O   0  0  0  0  0  0  0  0  0  0  0  0
    4.2601   -3.3937   -2.7135 C   0  0  0  0  0  0  0  0  0  0  0  0
    4.8404   -3.3711   -3.9844 C   0  0  0  0  0  0  0  0  0  0  0  0
    5.1097   -4.5582   -4.6768 C   0  0  0  0  0  0  0  0  0  0  0  0
    5.7174   -4.6169   -6.0553 C   0  0  0  0  0  0  0  0  0  0  0  0
    5.6478   -5.6330   -6.7279 O   0  0  0  0  0  0  0  0  0  0  0  0
    6.3505   -3.4698   -6.4745 N   0  0  0  0  0  0  0  0  0  0  0  0
    6.9730   -3.2260   -7.7084 C   0  0  0  0  0  0  0  0  0  0  0  0
    7.0372   -4.1470   -8.7691 C   0  0  0  0  0  0  0  0  0  0  0  0
    7.6817   -3.7748   -9.9452 C   0  0  0  0  0  0  0  0  0  0  0  0
    8.2494   -2.4944  -10.0374 C   0  0  0  0  0  0  0  0  0  0  0  0
    8.9177   -2.0562  -11.2022 N   0  0  0  0  0  0  0  0  0  0  0  0
    9.1384   -2.7541  -12.3826 C   0  0  0  0  0  0  0  0  0  0  0  0
    9.8268   -1.8908  -13.1973 C   0  0  0  0  0  0  0  0  0  0  0  0
   10.0379   -0.6874  -12.5628 N   0  0  0  0  0  0  0  0  0  0  0  0
    9.4898   -0.8105  -11.3817 C   0  0  0  0  0  0  0  0  0  0  0  0
    8.1892   -1.6220   -9.0333 N   0  0  0  0  0  0  0  0  0  0  0  0
    7.5750   -1.9708   -7.9119 C   0  0  0  0  0  0  0  0  0  0  0  0
    4.7629   -5.7796   -4.0791 C   0  0  0  0  0  0  0  0  0  0  0  0
    4.1848   -5.8146   -2.8135 C   0  0  0  0  0  0  0  0  0  0  0  0
    3.9321   -4.6243   -2.1212 C   0  0  0  0  0  0  0  0  0  0  0  0
    3.1965   -4.7303   -0.5465 Cl  0  0  0  0  0  0  0  0  0  0  0  0
   -0.5009   -4.9592   -1.1009 H   0  0  0  0  0  0  0  0  0  0  0  0
   -0.6904   -4.8978   -2.8824 H   0  0  0  0  0  0  0  0  0  0  0  0
   -1.6876   -3.8303   -1.8353 H   0  0  0  0  0  0  0  0  0  0  0  0
   -1.3838   -2.9626   -4.0514 H   0  0  0  0  0  0  0  0  0  0  0  0
   -1.1254   -1.1655   -5.7339 H   0  0  0  0  0  0  0  0  0  0  0  0
    0.7687    0.4537   -5.5664 H   0  0  0  0  0  0  0  0  0  0  0  0
    2.3984    0.2607   -3.6763 H   0  0  0  0  0  0  0  0  0  0  0  0
    1.9932   -2.2027   -0.9871 H   0  0  0  0  0  0  0  0  0  0  0  0
    5.0481   -2.3854   -4.4045 H   0  0  0  0  0  0  0  0  0  0  0  0
    6.4233   -2.7135   -5.8042 H   0  0  0  0  0  0  0  0  0  0  0  0
    6.5891   -5.1317   -8.6587 H   0  0  0  0  0  0  0  0  0  0  0  0
    7.7356   -4.4813  -10.7729 H   0  0  0  0  0  0  0  0  0  0  0  0
    8.7998   -3.7734  -12.5374 H   0  0  0  0  0  0  0  0  0  0  0  0
   10.1819   -2.0762  -14.2107 H   0  0  0  0  0  0  0  0  0  0  0  0
    9.4541   -0.0633  -10.5925 H   0  0  0  0  0  0  0  0  0  0  0  0
    7.5491   -1.2170   -7.1132 H   0  0  0  0  0  0  0  0  0  0  0  0
    4.9545   -6.7008   -4.6321 H   0  0  0  0  0  0  0  0  0  0  0  0
    3.9219   -6.7647   -2.3455 H   0  0  0  0  0  0  0  0  0  0  0  0
  1  2  1  0
  1 34  1  0
  1 35  1  0
  1 36  1  0
  2  3  1  0
  3  4  2  0
  3  8  1  0
  4  5  1  0
  4 37  1  0
  5  6  2  0
  5 38  1  0
  6  7  1  0
  6 39  1  0
  7  8  2  0
  7 40  1  0
  8  9  1  0
 10  9  1  1
  9 41  1  0
 10 11  2  0
 10 12  2  0
 10 13  1  0
 13 14  2  0
 13 32  1  0
 14 15  1  0
 14 42  1  0
 15 16  1  0
 15 30  2  0
 16 17  2  0
 16 18  1  0
 18 19  1  0
 18 43  1  0
 19 20  2  0
 19 29  1  0
 20 21  1  0
 20 44  1  0
 21 22  2  0
 21 45  1  0
 22 23  1  0
 22 28  1  0
 23 24  1  0
 23 27  1  0
 24 25  2  0
 24 46  1  0
 25 26  1  0
 25 47  1  0
 26 27  2  0
 27 48  1  0
 28 29  2  0
 29 49  1  0
 30 31  1  0
 30 50  1  0
 31 32  2  0
 31 51  1  0
 32 33  1  0
M  END

