
     RDKit          3D

 46 46  0  0  0  0  0  0  0  0999 V2000
    3.4752    0.9043    3.1761 C   0  0  0  0  0  0  0  0  0  0  0  0
    4.5999    0.6797    2.1634 C   0  0  0  0  0  0  0  0  0  0  0  0
    4.3374    1.3693    0.8204 C   0  0  0  0  0  0  0  0  0  0  0  0
    5.4822    1.2688   -0.2062 C   0  0  1  0  0  0  0  0  0  0  0  0
    5.8362   -0.1754   -0.6082 C   0  0  0  0  0  0  0  0  0  0  0  0
    4.7291   -1.0157   -1.0427 N   0  0  0  0  0  0  0  0  0  0  0  0
    4.4488   -1.2236   -2.3659 C   0  0  0  0  0  0  0  0  0  0  0  0
    5.0456   -0.6017   -3.2556 O   0  0  0  0  0  0  0  0  0  0  0  0
    3.4782   -2.1408   -2.6401 N   0  0  0  0  0  0  0  0  0  0  0  0
    3.0783   -2.4865   -3.9902 C   0  0  0  0  0  0  0  0  0  0  0  0
    3.3063   -3.9634   -4.2743 C   0  0  0  0  0  0  0  0  0  0  0  0
    2.6018   -4.7007   -3.2967 O   0  0  0  0  0  0  0  0  0  0  0  0
    2.7736   -6.1038   -3.3425 C   0  0  1  0  0  0  0  0  0  0  0  0
    2.1926   -6.7546   -2.0862 C   0  0  0  0  0  0  0  0  0  0  0  0
    2.0754   -8.2305   -2.4813 C   0  0  0  0  0  0  0  0  0  0  0  0
    1.6111   -8.1988   -3.9600 C   0  0  0  0  0  0  0  0  0  0  0  0
    2.0330   -6.8066   -4.5069 C   0  0  0  0  0  0  0  0  0  0  0  0
    5.2437    2.2972   -1.3425 C   0  0  0  0  0  0  0  0  0  0  0  0
    5.0013    3.4447   -1.0514 O   0  0  0  0  0  0  0  0  0  0  0  0
    5.3702    1.9284   -2.6122 O   0  0  0  0  0  0  0  0  0  0  0  0
    3.6867    0.4053    4.1353 H   0  0  0  0  0  0  0  0  0  0  0  0
    2.5137    0.5142    2.8016 H   0  0  0  0  0  0  0  0  0  0  0  0
    3.3344    1.9783    3.3805 H   0  0  0  0  0  0  0  0  0  0  0  0
    4.7447   -0.4081    2.0243 H   0  0  0  0  0  0  0  0  0  0  0  0
    5.5525    1.0528    2.5819 H   0  0  0  0  0  0  0  0  0  0  0  0
    4.1531    2.4409    0.9891 H   0  0  0  0  0  0  0  0  0  0  0  0
    3.4108    0.9676    0.3702 H   0  0  0  0  0  0  0  0  0  0  0  0
    6.3911    1.6660    0.2835 H   0  0  0  0  0  0  0  0  0  0  0  0
    6.3125   -0.6698    0.2532 H   0  0  0  0  0  0  0  0  0  0  0  0
    6.5831   -0.1712   -1.4150 H   0  0  0  0  0  0  0  0  0  0  0  0
    4.1575   -1.4643   -0.3379 H   0  0  0  0  0  0  0  0  0  0  0  0
    3.1372   -2.7563   -1.9100 H   0  0  0  0  0  0  0  0  0  0  0  0
    3.6634   -1.8662   -4.6823 H   0  0  0  0  0  0  0  0  0  0  0  0
    2.0090   -2.2534   -4.1392 H   0  0  0  0  0  0  0  0  0  0  0  0
    4.3892   -4.1999   -4.2298 H   0  0  0  0  0  0  0  0  0  0  0  0
    2.9520   -4.2019   -5.2962 H   0  0  0  0  0  0  0  0  0  0  0  0
    3.8586   -6.3322   -3.4018 H   0  0  0  0  0  0  0  0  0  0  0  0
    1.1967   -6.3144   -1.9031 H   0  0  0  0  0  0  0  0  0  0  0  0
    2.8073   -6.5781   -1.1898 H   0  0  0  0  0  0  0  0  0  0  0  0
    1.3941   -8.7985   -1.8299 H   0  0  0  0  0  0  0  0  0  0  0  0
    3.0651   -8.7125   -2.4040 H   0  0  0  0  0  0  0  0  0  0  0  0
    0.5182   -8.3173   -4.0232 H   0  0  0  0  0  0  0  0  0  0  0  0
    2.0470   -9.0264   -4.5397 H   0  0  0  0  0  0  0  0  0  0  0  0
    1.1500   -6.1963   -4.7571 H   0  0  0  0  0  0  0  0  0  0  0  0
    2.6483   -6.8773   -5.4167 H   0  0  0  0  0  0  0  0  0  0  0  0
    5.3675    0.9507   -2.8029 H   0  0  0  0  0  0  0  0  0  0  0  0
  1  2  1  0
  1 21  1  0
  1 22  1  0
  1 23  1  0
  2  3  1  0
  2 24  1  0
  2 25  1  0
  3  4  1  0
  3 26  1  0
  3 27  1  0
  4  5  1  0
  4 18  1  0
  4 28  1  1
  5  6  1  0
  5 29  1  0
  5 30  1  0
  6  7  1  0
  6 31  1  0
  7  8  2  0
  7  9  1  0
  9 10  1  0
  9 32  1  0
 10 11  1  0
 10 33  1  0
 10 34  1  0
 11 12  1  0
 11 35  1  0
 11 36  1  0
 12 13  1  0
 13 14  1  0
 13 17  1  0
 13 37  1  6
 14 15  1  0
 14 38  1  0
 14 39  1  0
 15 16  1  0
 15 40  1  0
 15 41  1  0
 16 17  1  0
 16 42  1  0
 16 43  1  0
 17 44  1  0
 17 45  1  0
 18 19  2  0
 18 20  1  0
 20 46  1  0
M  END

