
     RDKit          3D

 52 52  0  0  0  0  0  0  0  0999 V2000
    8.8906   -0.8135    1.4986 C   0  0  0  0  0  0  0  0  0  0  0  0
    7.3757   -0.8760    1.3880 C   0  0  0  0  0  0  0  0  0  0  0  0
    6.9467   -1.9412    0.5243 O   0  0  0  0  0  0  0  0  0  0  0  0
    6.8854   -1.6824   -0.7998 C   0  0  0  0  0  0  0  0  0  0  0  0
    7.1686   -0.6064   -1.2796 O   0  0  0  0  0  0  0  0  0  0  0  0
    6.4303   -2.8593   -1.5893 C   0  0  0  0  0  0  0  0  0  0  0  0
    6.1083   -4.0936   -1.0041 C   0  0  0  0  0  0  0  0  0  0  0  0
    5.6851   -5.1733   -1.7766 C   0  0  0  0  0  0  0  0  0  0  0  0
    5.5756   -5.0311   -3.1741 C   0  0  0  0  0  0  0  0  0  0  0  0
    5.1568   -6.0563   -4.0312 N   0  0  0  0  0  0  0  0  0  0  0  0
    4.8262   -7.3622   -3.7411 C   0  0  0  0  0  0  0  0  0  0  0  0
    4.8641   -7.8294   -2.5990 O   0  0  0  0  0  0  0  0  0  0  0  0
    4.4149   -8.1820   -4.9027 C   0  0  0  0  0  0  0  0  0  0  0  0
    4.3857   -7.6169   -6.2081 C   0  0  0  0  0  0  0  0  0  0  0  0
    4.3819   -7.1000   -7.2529 N   0  0  0  0  0  0  0  0  0  0  0  0
    4.0560   -9.5176   -4.7398 C   0  0  0  0  0  0  0  0  0  0  0  0
    4.0383  -10.1837   -3.5925 N   0  0  0  0  0  0  0  0  0  0  0  0
    3.6838  -11.5773   -3.4184 C   0  0  0  0  0  0  0  0  0  0  0  0
    4.7417  -12.2968   -2.5661 C   0  0  0  0  0  0  0  0  0  0  0  0
    4.9563  -11.6144   -1.2993 N   0  0  0  0  0  0  0  0  0  0  0  0
    4.0168  -11.9832   -0.2405 C   0  0  0  0  0  0  0  0  0  0  0  0
    4.2618  -13.3317    0.4535 C   0  0  0  0  0  0  0  0  0  0  0  0
    6.3511  -11.4395   -0.8941 C   0  0  0  0  0  0  0  0  0  0  0  0
    6.5592  -10.2856    0.0847 C   0  0  0  0  0  0  0  0  0  0  0  0
    5.8980   -3.7902   -3.7641 C   0  0  0  0  0  0  0  0  0  0  0  0
    6.3184   -2.7228   -2.9828 C   0  0  0  0  0  0  0  0  0  0  0  0
    9.1820   -0.0400    2.2275 H   0  0  0  0  0  0  0  0  0  0  0  0
    9.3413   -0.5566    0.5287 H   0  0  0  0  0  0  0  0  0  0  0  0
    9.3013   -1.7777    1.8368 H   0  0  0  0  0  0  0  0  0  0  0  0
    6.9718    0.0751    1.0105 H   0  0  0  0  0  0  0  0  0  0  0  0
    6.9146   -1.1015    2.3610 H   0  0  0  0  0  0  0  0  0  0  0  0
    6.1913   -4.2070    0.0776 H   0  0  0  0  0  0  0  0  0  0  0  0
    5.4351   -6.1257   -1.3174 H   0  0  0  0  0  0  0  0  0  0  0  0
    5.0945   -5.7961   -5.0112 H   0  0  0  0  0  0  0  0  0  0  0  0
    3.7592  -10.0823   -5.6309 H   0  0  0  0  0  0  0  0  0  0  0  0
    4.3290   -9.6552   -2.7599 H   0  0  0  0  0  0  0  0  0  0  0  0
    3.5918  -12.0598   -4.4048 H   0  0  0  0  0  0  0  0  0  0  0  0
    2.6950  -11.6520   -2.9296 H   0  0  0  0  0  0  0  0  0  0  0  0
    5.6879  -12.3055   -3.1291 H   0  0  0  0  0  0  0  0  0  0  0  0
    4.4379  -13.3583   -2.4509 H   0  0  0  0  0  0  0  0  0  0  0  0
    3.0027  -11.9792   -0.6745 H   0  0  0  0  0  0  0  0  0  0  0  0
    4.0087  -11.1821    0.5164 H   0  0  0  0  0  0  0  0  0  0  0  0
    4.2668  -14.1707   -0.2615 H   0  0  0  0  0  0  0  0  0  0  0  0
    3.4656  -13.5294    1.1890 H   0  0  0  0  0  0  0  0  0  0  0  0
    5.2207  -13.3479    0.9949 H   0  0  0  0  0  0  0  0  0  0  0  0
    6.9273  -11.2239   -1.8078 H   0  0  0  0  0  0  0  0  0  0  0  0
    6.7897  -12.3704   -0.4706 H   0  0  0  0  0  0  0  0  0  0  0  0
    6.1623   -9.3490   -0.3371 H   0  0  0  0  0  0  0  0  0  0  0  0
    7.6344  -10.1512    0.2830 H   0  0  0  0  0  0  0  0  0  0  0  0
    6.0706  -10.4636    1.0557 H   0  0  0  0  0  0  0  0  0  0  0  0
    5.8155   -3.6713   -4.8484 H   0  0  0  0  0  0  0  0  0  0  0  0
    6.5684   -1.7621   -3.4370 H   0  0  0  0  0  0  0  0  0  0  0  0
  1  2  1  0
  1 27  1  0
  1 28  1  0
  1 29  1  0
  2  3  1  0
  2 30  1  0
  2 31  1  0
  3  4  1  0
  4  5  2  0
  4  6  1  0
  6  7  2  0
  6 26  1  0
  7  8  1  0
  7 32  1  0
  8  9  2  0
  8 33  1  0
  9 10  1  0
  9 25  1  0
 10 11  1  0
 10 34  1  0
 11 12  2  0
 11 13  1  0
 13 14  1  0
 13 16  2  0
 14 15  3  0
 16 17  1  0
 16 35  1  0
 17 18  1  0
 17 36  1  0
 18 19  1  0
 18 37  1  0
 18 38  1  0
 19 20  1  0
 19 39  1  0
 19 40  1  0
 20 21  1  0
 20 23  1  0
 21 22  1  0
 21 41  1  0
 21 42  1  0
 22 43  1  0
 22 44  1  0
 22 45  1  0
 23 24  1  0
 23 46  1  0
 23 47  1  0
 24 48  1  0
 24 49  1  0
 24 50  1  0
 25 26  2  0
 25 51  1  0
 26 52  1  0
M  END

