
     RDKit          3D

 26 26  0  0  0  0  0  0  0  0999 V2000
    1.5694   -1.1373   -1.1076 C   0  0  0  0  0  0  0  0  0  0  0  0
    2.8972   -0.7563   -0.5004 C   0  0  0  0  0  0  0  0  0  0  0  0
    3.6295    0.2853   -1.0929 C   0  0  0  0  0  0  0  0  0  0  0  0
    4.8573    0.6914   -0.5786 C   0  0  0  0  0  0  0  0  0  0  0  0
    5.5100    1.6874   -1.1820 F   0  0  0  0  0  0  0  0  0  0  0  0
    5.4192    0.0967    0.5491 C   0  0  0  0  0  0  0  0  0  0  0  0
    4.7153   -0.9382    1.1561 C   0  0  0  0  0  0  0  0  0  0  0  0
    3.4822   -1.3638    0.6379 C   0  0  0  0  0  0  0  0  0  0  0  0
    2.7296   -2.7169    1.5468 S   0  0  1  0  0  0  0  0  0  0  0  0
    3.3215   -2.7892    2.8830 O   0  0  0  0  0  0  0  0  0  0  0  0
    1.2780   -2.7173    1.3536 O   0  0  0  0  0  0  0  0  0  0  0  0
    3.3742   -4.1475    0.7709 N   0  0  0  0  0  0  0  0  0  0  0  0
    2.6767   -4.5868   -0.3339 N   0  0  0  0  0  0  0  0  0  0  0  0
    3.2205   -4.5255   -1.6019 C   0  0  0  0  0  0  0  0  0  0  0  0
    4.5459   -4.2904   -1.6486 N   0  0  0  0  0  0  0  0  0  0  0  0
    2.2526   -4.7626   -2.9410 S   0  0  0  0  0  0  0  0  0  0  0  0
    1.2877   -0.4055   -1.8769 H   0  0  0  0  0  0  0  0  0  0  0  0
    0.7799   -1.1848   -0.3470 H   0  0  0  0  0  0  0  0  0  0  0  0
    1.6104   -2.1264   -1.5943 H   0  0  0  0  0  0  0  0  0  0  0  0
    3.2369    0.8002   -1.9718 H   0  0  0  0  0  0  0  0  0  0  0  0
    6.3762    0.4497    0.9362 H   0  0  0  0  0  0  0  0  0  0  0  0
    5.1080   -1.4215    2.0518 H   0  0  0  0  0  0  0  0  0  0  0  0
    3.4475   -4.8469    1.5185 H   0  0  0  0  0  0  0  0  0  0  0  0
    1.6622   -4.6736   -0.2849 H   0  0  0  0  0  0  0  0  0  0  0  0
    5.0654   -4.1076   -0.7967 H   0  0  0  0  0  0  0  0  0  0  0  0
    4.9839   -4.2179   -2.5564 H   0  0  0  0  0  0  0  0  0  0  0  0
  1  2  1  0
  1 17  1  0
  1 18  1  0
  1 19  1  0
  2  3  2  0
  2  8  1  0
  3  4  1  0
  3 20  1  0
  4  5  1  0
  4  6  2  0
  6  7  1  0
  6 21  1  0
  7  8  2  0
  7 22  1  0
  8  9  1  0
  9 10  2  0
  9 11  2  0
  9 12  1  6
 12 13  1  0
 12 23  1  0
 13 14  1  0
 13 24  1  0
 14 15  1  0
 14 16  2  0
 15 25  1  0
 15 26  1  0
M  END

