
     RDKit          3D

 45 47  0  0  0  0  0  0  0  0999 V2000
    2.7975    0.0936    2.2677 C   0  0  0  0  0  0  0  0  0  0  0  0
    3.8079   -0.5653    1.3269 C   0  0  0  0  0  0  0  0  0  0  0  0
    3.1964   -0.9569   -0.0209 C   0  0  0  0  0  0  0  0  0  0  0  0
    4.1312   -1.6641   -1.0109 C   0  0  0  0  0  0  0  0  0  0  0  0
    4.6057   -2.9870   -0.5762 N   0  0  0  0  0  0  0  0  0  0  0  0
    3.7212   -4.0322   -0.6951 C   0  0  0  0  0  0  0  0  0  0  0  0
    2.5805   -3.8895   -1.1070 O   0  0  0  0  0  0  0  0  0  0  0  0
    4.2621   -5.3944   -0.2361 C   0  0  1  0  0  0  0  0  0  0  0  0
    3.4615   -6.5538   -0.8249 C   0  0  0  0  0  0  0  0  0  0  0  0
    3.7888   -7.8961   -0.2094 C   0  0  0  0  0  0  0  0  0  0  0  0
    2.9816   -8.4316    0.8068 C   0  0  0  0  0  0  0  0  0  0  0  0
    3.2870   -9.6621    1.3962 C   0  0  0  0  0  0  0  0  0  0  0  0
    4.4089  -10.3810    0.9750 C   0  0  0  0  0  0  0  0  0  0  0  0
    5.2202   -9.8603   -0.0383 C   0  0  0  0  0  0  0  0  0  0  0  0
    4.9128   -8.6296   -0.6238 C   0  0  0  0  0  0  0  0  0  0  0  0
    5.6303   -5.5457   -0.6150 O   0  0  0  0  0  0  0  0  0  0  0  0
    6.4464   -4.5320   -0.2119 C   0  0  0  0  0  0  0  0  0  0  0  0
    7.7702   -4.8226    0.1060 C   0  0  0  0  0  0  0  0  0  0  0  0
    8.6566   -3.7999    0.4919 C   0  0  0  0  0  0  0  0  0  0  0  0
    9.9646   -4.0932    0.8542 N   0  0  0  0  0  0  0  0  0  0  0  0
    8.1562   -2.4861    0.5649 C   0  0  0  0  0  0  0  0  0  0  0  0
    6.8254   -2.2057    0.2518 C   0  0  0  0  0  0  0  0  0  0  0  0
    5.9452   -3.2149   -0.1585 C   0  0  0  0  0  0  0  0  0  0  0  0
    3.2591    0.3680    3.2296 H   0  0  0  0  0  0  0  0  0  0  0  0
    1.9538   -0.5829    2.4829 H   0  0  0  0  0  0  0  0  0  0  0  0
    2.3766    1.0123    1.8255 H   0  0  0  0  0  0  0  0  0  0  0  0
    4.2331   -1.4596    1.8149 H   0  0  0  0  0  0  0  0  0  0  0  0
    4.6565    0.1243    1.1631 H   0  0  0  0  0  0  0  0  0  0  0  0
    2.8158   -0.0502   -0.5260 H   0  0  0  0  0  0  0  0  0  0  0  0
    2.3181   -1.6039    0.1377 H   0  0  0  0  0  0  0  0  0  0  0  0
    5.0124   -1.0478   -1.2374 H   0  0  0  0  0  0  0  0  0  0  0  0
    3.5825   -1.8186   -1.9518 H   0  0  0  0  0  0  0  0  0  0  0  0
    4.1969   -5.4225    0.8718 H   0  0  0  0  0  0  0  0  0  0  0  0
    3.6449   -6.5669   -1.9116 H   0  0  0  0  0  0  0  0  0  0  0  0
    2.3993   -6.3096   -0.6869 H   0  0  0  0  0  0  0  0  0  0  0  0
    2.0965   -7.8792    1.1365 H   0  0  0  0  0  0  0  0  0  0  0  0
    2.6425  -10.0624    2.1833 H   0  0  0  0  0  0  0  0  0  0  0  0
    4.6479  -11.3453    1.4310 H   0  0  0  0  0  0  0  0  0  0  0  0
    6.0975  -10.4181   -0.3770 H   0  0  0  0  0  0  0  0  0  0  0  0
    5.5524   -8.2256   -1.4119 H   0  0  0  0  0  0  0  0  0  0  0  0
    8.0940   -5.8642    0.0527 H   0  0  0  0  0  0  0  0  0  0  0  0
   10.3522   -4.9538    0.4854 H   0  0  0  0  0  0  0  0  0  0  0  0
   10.6212   -3.3219    0.8284 H   0  0  0  0  0  0  0  0  0  0  0  0
    8.8147   -1.6722    0.8787 H   0  0  0  0  0  0  0  0  0  0  0  0
    6.4789   -1.1753    0.3241 H   0  0  0  0  0  0  0  0  0  0  0  0
  1  2  1  0
  1 24  1  0
  1 25  1  0
  1 26  1  0
  2  3  1  0
  2 27  1  0
  2 28  1  0
  3  4  1  0
  3 29  1  0
  3 30  1  0
  4  5  1  0
  4 31  1  0
  4 32  1  0
  5  6  1  0
  5 23  1  0
  6  7  2  0
  6  8  1  0
  8  9  1  0
  8 16  1  0
  8 33  1  1
  9 10  1  0
  9 34  1  0
  9 35  1  0
 10 11  2  0
 10 15  1  0
 11 12  1  0
 11 36  1  0
 12 13  2  0
 12 37  1  0
 13 14  1  0
 13 38  1  0
 14 15  2  0
 14 39  1  0
 15 40  1  0
 16 17  1  0
 17 18  1  0
 17 23  2  0
 18 19  2  0
 18 41  1  0
 19 20  1  0
 19 21  1  0
 20 42  1  0
 20 43  1  0
 21 22  2  0
 21 44  1  0
 22 23  1  0
 22 45  1  0
M  END

