
     RDKit          3D

 69 72  0  0  0  0  0  0  0  0999 V2000
    0.9159   -4.9081   -0.5810 C   0  0  0  0  0  0  0  0  0  0  0  0
    1.2520   -3.5858   -0.9902 O   0  0  0  0  0  0  0  0  0  0  0  0
    2.2928   -2.9784   -0.3656 C   0  0  0  0  0  0  0  0  0  0  0  0
    3.6184   -3.3828   -0.5605 C   0  0  0  0  0  0  0  0  0  0  0  0
    4.6746   -2.7090    0.0528 C   0  0  0  0  0  0  0  0  0  0  0  0
    4.4353   -1.5818    0.8567 C   0  0  0  0  0  0  0  0  0  0  0  0
    5.4655   -0.8651    1.4959 N   0  0  0  0  0  0  0  0  0  0  0  0
    6.7006   -0.4180    1.0431 C   0  0  0  0  0  0  0  0  0  0  0  0
    7.1306   -0.7725   -0.3670 C   0  0  0  0  0  0  0  0  0  0  0  0
    7.3966    0.2514    1.7813 O   0  0  0  0  0  0  0  0  0  0  0  0
    3.1054   -1.1764    1.0644 C   0  0  0  0  0  0  0  0  0  0  0  0
    2.0542   -1.8737    0.4751 C   0  0  0  0  0  0  0  0  0  0  0  0
    0.3275   -1.4191    0.7317 S   0  0  1  0  0  0  0  0  0  0  0  0
   -0.2126   -0.8960   -0.5252 O   0  0  0  0  0  0  0  0  0  0  0  0
   -0.2993   -2.5780    1.3910 O   0  0  0  0  0  0  0  0  0  0  0  0
    0.3786   -0.1376    1.8573 N   0  0  0  0  0  0  0  0  0  0  0  0
    0.1678    1.2269    1.3095 C   0  0  0  0  0  0  0  0  0  0  0  0
    1.3998    1.8563    0.6878 C   0  0  0  0  0  0  0  0  0  0  0  0
    1.6146    1.8014   -0.6978 C   0  0  0  0  0  0  0  0  0  0  0  0
    2.7571    2.3771   -1.2626 C   0  0  0  0  0  0  0  0  0  0  0  0
    3.7008    3.0136   -0.4515 C   0  0  0  0  0  0  0  0  0  0  0  0
    3.4945    3.0790    0.9306 C   0  0  0  0  0  0  0  0  0  0  0  0
    2.3504    2.5067    1.4921 C   0  0  0  0  0  0  0  0  0  0  0  0
   -0.1302   -0.4435    3.1959 C   0  0  1  0  0  0  0  0  0  0  0  0
   -0.0348   -1.5316    3.3138 H   0  0  0  0  0  0  0  0  0  0  0  0
    0.6747    0.2170    4.3271 C   0  0  0  0  0  0  0  0  0  0  0  0
   -0.4445    0.2085    5.7954 S   0  0  2  0  0  0  0  0  0  0  0  0
   -0.7619    1.6062    6.1241 O   0  0  0  0  0  0  0  0  0  0  0  0
    0.0580   -0.7242    6.8092 O   0  0  0  0  0  0  0  0  0  0  0  0
   -1.8757   -0.5016    4.9088 C   0  0  0  0  0  0  0  0  0  0  0  0
   -1.6335   -0.1127    3.4296 C   0  0  2  0  0  0  0  0  0  0  0  0
   -1.7732    0.9823    3.3674 H   0  0  0  0  0  0  0  0  0  0  0  0
   -2.4646   -0.7173    2.4285 N   0  0  0  0  0  0  0  0  0  0  0  0
   -3.8711   -0.3613    2.4156 C   0  0  0  0  0  0  0  0  0  0  0  0
   -4.6043   -0.8988    1.1994 C   0  0  0  0  0  0  0  0  0  0  0  0
   -5.9869   -1.1313    1.2701 C   0  0  0  0  0  0  0  0  0  0  0  0
   -6.6967   -1.5802    0.1540 C   0  0  0  0  0  0  0  0  0  0  0  0
   -6.0287   -1.8144   -1.0521 C   0  0  0  0  0  0  0  0  0  0  0  0
   -4.6505   -1.5959   -1.1290 C   0  0  0  0  0  0  0  0  0  0  0  0
   -3.9405   -1.1393   -0.0136 C   0  0  0  0  0  0  0  0  0  0  0  0
    0.1098   -5.2446   -1.2461 H   0  0  0  0  0  0  0  0  0  0  0  0
    0.5528   -4.9072    0.4593 H   0  0  0  0  0  0  0  0  0  0  0  0
    1.7733   -5.5968   -0.6780 H   0  0  0  0  0  0  0  0  0  0  0  0
    3.8176   -4.2426   -1.2037 H   0  0  0  0  0  0  0  0  0  0  0  0
    5.6918   -3.0734   -0.0878 H   0  0  0  0  0  0  0  0  0  0  0  0
    5.2381   -0.4546    2.3979 H   0  0  0  0  0  0  0  0  0  0  0  0
    6.2992   -0.7607   -1.0860 H   0  0  0  0  0  0  0  0  0  0  0  0
    7.5890   -1.7743   -0.3881 H   0  0  0  0  0  0  0  0  0  0  0  0
    7.8979   -0.0467   -0.6643 H   0  0  0  0  0  0  0  0  0  0  0  0
    2.8937   -0.3039    1.6816 H   0  0  0  0  0  0  0  0  0  0  0  0
   -0.1534    1.8456    2.1585 H   0  0  0  0  0  0  0  0  0  0  0  0
   -0.6631    1.2143    0.5908 H   0  0  0  0  0  0  0  0  0  0  0  0
    0.8862    1.2905   -1.3310 H   0  0  0  0  0  0  0  0  0  0  0  0
    2.9090    2.3280   -2.3440 H   0  0  0  0  0  0  0  0  0  0  0  0
    4.5928    3.4645   -0.8939 H   0  0  0  0  0  0  0  0  0  0  0  0
    4.2225    3.5837    1.5709 H   0  0  0  0  0  0  0  0  0  0  0  0
    2.1910    2.5751    2.5725 H   0  0  0  0  0  0  0  0  0  0  0  0
    0.8969    1.2762    4.1434 H   0  0  0  0  0  0  0  0  0  0  0  0
    1.5890   -0.3263    4.5972 H   0  0  0  0  0  0  0  0  0  0  0  0
   -2.7775   -0.0657    5.3580 H   0  0  0  0  0  0  0  0  0  0  0  0
   -1.8545   -1.5910    5.0608 H   0  0  0  0  0  0  0  0  0  0  0  0
   -2.3034   -1.7193    2.3322 H   0  0  0  0  0  0  0  0  0  0  0  0
   -3.9332    0.7446    2.4151 H   0  0  0  0  0  0  0  0  0  0  0  0
   -4.4195   -0.6860    3.3267 H   0  0  0  0  0  0  0  0  0  0  0  0
   -6.5151   -0.9598    2.2133 H   0  0  0  0  0  0  0  0  0  0  0  0
   -7.7733   -1.7547    0.2286 H   0  0  0  0  0  0  0  0  0  0  0  0
   -6.5802   -2.1710   -1.9260 H   0  0  0  0  0  0  0  0  0  0  0  0
   -4.1171   -1.7819   -2.0649 H   0  0  0  0  0  0  0  0  0  0  0  0
   -2.8630   -0.9800   -0.0842 H   0  0  0  0  0  0  0  0  0  0  0  0
  1  2  1  0
  1 41  1  0
  1 42  1  0
  1 43  1  0
  2  3  1  0
  3  4  2  0
  3 12  1  0
  4  5  1  0
  4 44  1  0
  5  6  2  0
  5 45  1  0
  6  7  1  0
  6 11  1  0
  7  8  1  0
  7 46  1  0
  8  9  1  0
  8 10  2  0
  9 47  1  0
  9 48  1  0
  9 49  1  0
 11 12  2  0
 11 50  1  0
 12 13  1  0
 13 14  2  0
 13 15  2  0
 13 16  1  1
 16 17  1  0
 16 24  1  0
 17 18  1  0
 17 51  1  0
 17 52  1  0
 18 19  2  0
 18 23  1  0
 19 20  1  0
 19 53  1  0
 20 21  2  0
 20 54  1  0
 21 22  1  0
 21 55  1  0
 22 23  2  0
 22 56  1  0
 23 57  1  0
 24 25  1  1
 24 26  1  0
 24 31  1  0
 27 26  1  6
 26 58  1  0
 26 59  1  0
 27 28  2  0
 27 29  2  0
 27 30  1  0
 30 31  1  0
 30 60  1  0
 30 61  1  0
 31 32  1  1
 31 33  1  0
 33 34  1  0
 33 62  1  0
 34 35  1  0
 34 63  1  0
 34 64  1  0
 35 36  2  0
 35 40  1  0
 36 37  1  0
 36 65  1  0
 37 38  2  0
 37 66  1  0
 38 39  1  0
 38 67  1  0
 39 40  2  0
 39 68  1  0
 40 69  1  0
M  END

