
     RDKit          3D

 29 29  0  0  0  0  0  0  0  0999 V2000
    2.2060    0.7881   -1.0080 O   0  0  0  0  0  0  0  0  0  0  0  0
    1.9527    0.1160   -0.0437 C   0  0  0  0  0  0  0  0  0  0  0  0
    0.7980   -0.5851    0.0177 O   0  0  0  0  0  0  0  0  0  0  0  0
    2.8697    0.0068    1.1443 C   0  0  0  0  0  0  0  0  0  0  0  0
    3.8660    0.9845    1.2925 C   0  0  0  0  0  0  0  0  0  0  0  0
    4.7543    0.9286    2.3636 C   0  0  0  0  0  0  0  0  0  0  0  0
    4.6779   -0.1096    3.3062 C   0  0  0  0  0  0  0  0  0  0  0  0
    5.6061   -0.1250    4.5056 C   0  0  1  0  0  0  0  0  0  0  0  0
    5.0557    0.6836    5.6903 C   0  0  0  0  0  0  0  0  0  0  0  0
    5.9377    0.6559    6.7774 O   0  0  0  0  0  0  0  0  0  0  0  0
    5.8090   -1.4353    5.0239 O   0  0  0  0  0  0  0  0  0  0  0  0
    6.6973   -2.2450    4.3062 C   0  0  0  0  0  0  0  0  0  0  0  0
    6.6274   -3.6463    4.8859 C   0  0  1  0  0  0  0  0  0  0  0  0
    6.9428   -3.6610    6.1877 F   0  0  0  0  0  0  0  0  0  0  0  0
    5.4002   -4.1731    4.7555 F   0  0  0  0  0  0  0  0  0  0  0  0
    7.4906   -4.4458    4.2395 F   0  0  0  0  0  0  0  0  0  0  0  0
    3.6967   -1.0989    3.1470 C   0  0  0  0  0  0  0  0  0  0  0  0
    2.8045   -1.0419    2.0747 C   0  0  0  0  0  0  0  0  0  0  0  0
    0.6732   -0.9605    0.9003 H   0  0  0  0  0  0  0  0  0  0  0  0
    3.9277    1.7794    0.5470 H   0  0  0  0  0  0  0  0  0  0  0  0
    5.5248    1.6984    2.4663 H   0  0  0  0  0  0  0  0  0  0  0  0
    6.5839    0.3140    4.2277 H   0  0  0  0  0  0  0  0  0  0  0  0
    4.0527    0.2831    5.9445 H   0  0  0  0  0  0  0  0  0  0  0  0
    4.9243    1.7330    5.3841 H   0  0  0  0  0  0  0  0  0  0  0  0
    6.1046   -0.2791    6.9686 H   0  0  0  0  0  0  0  0  0  0  0  0
    7.7423   -1.8904    4.3878 H   0  0  0  0  0  0  0  0  0  0  0  0
    6.4363   -2.3135    3.2345 H   0  0  0  0  0  0  0  0  0  0  0  0
    3.6532   -1.9272    3.8568 H   0  0  0  0  0  0  0  0  0  0  0  0
    2.0753   -1.8498    1.9599 H   0  0  0  0  0  0  0  0  0  0  0  0
  1  2  2  0
  2  3  1  0
  2  4  1  0
  3 19  1  0
  4  5  2  0
  4 18  1  0
  5  6  1  0
  5 20  1  0
  6  7  2  0
  6 21  1  0
  7  8  1  0
  7 17  1  0
  8  9  1  0
  8 11  1  0
  8 22  1  6
  9 10  1  0
  9 23  1  0
  9 24  1  0
 10 25  1  0
 11 12  1  0
 12 13  1  0
 12 26  1  0
 12 27  1  0
 13 14  1  1
 13 15  1  0
 13 16  1  0
 17 18  2  0
 17 28  1  0
 18 29  1  0
M  END

