
     RDKit          3D

 45 45  0  0  0  0  0  0  0  0999 V2000
    1.7766    0.1233   -1.6129 C   0  0  0  0  0  0  0  0  0  0  0  0
    3.2497   -0.0452   -1.2361 C   0  0  0  0  0  0  0  0  0  0  0  0
    3.9765    1.2911   -1.0501 C   0  0  0  0  0  0  0  0  0  0  0  0
    5.4315    1.1819   -0.5595 C   0  0  1  0  0  0  0  0  0  0  0  0
    6.3609    0.4533   -1.5373 C   0  0  0  0  0  0  0  0  0  0  0  0
    5.9565    2.5106   -0.2511 N   0  0  0  0  0  0  0  0  0  0  0  0
    6.4337    2.8664    0.9764 C   0  0  0  0  0  0  0  0  0  0  0  0
    6.4452    2.1133    1.9374 O   0  0  0  0  0  0  0  0  0  0  0  0
    6.9873    4.2933    1.0744 C   0  0  0  0  0  0  0  0  0  0  0  0
    8.5036    4.3252    1.1279 C   0  0  0  0  0  0  0  0  0  0  0  0
    9.2426    5.0474    0.1804 C   0  0  0  0  0  0  0  0  0  0  0  0
   10.6383    5.0834    0.2365 C   0  0  0  0  0  0  0  0  0  0  0  0
   11.3247    4.3851    1.2383 C   0  0  0  0  0  0  0  0  0  0  0  0
   12.7595    4.4027    1.2436 N   0  0  0  0  0  0  0  0  0  0  0  0
   13.4602    3.3422    0.5152 C   0  0  0  0  0  0  0  0  0  0  0  0
   13.5575    5.1720    2.5291 S   0  0  1  0  0  0  0  0  0  0  0  0
   13.5009    6.9064    2.0532 C   0  0  0  0  0  0  0  0  0  0  0  0
   12.7729    5.0487    3.7595 O   0  0  0  0  0  0  0  0  0  0  0  0
   14.9548    4.7352    2.4806 O   0  0  0  0  0  0  0  0  0  0  0  0
   10.5915    3.6544    2.1869 C   0  0  0  0  0  0  0  0  0  0  0  0
    9.1989    3.6305    2.1331 C   0  0  0  0  0  0  0  0  0  0  0  0
    1.2794   -0.8512   -1.7415 H   0  0  0  0  0  0  0  0  0  0  0  0
    1.6654    0.6803   -2.5584 H   0  0  0  0  0  0  0  0  0  0  0  0
    1.2247    0.6790   -0.8365 H   0  0  0  0  0  0  0  0  0  0  0  0
    3.7553   -0.6454   -2.0120 H   0  0  0  0  0  0  0  0  0  0  0  0
    3.3274   -0.6301   -0.3017 H   0  0  0  0  0  0  0  0  0  0  0  0
    3.4215    1.9043   -0.3190 H   0  0  0  0  0  0  0  0  0  0  0  0
    3.9555    1.8556   -2.0030 H   0  0  0  0  0  0  0  0  0  0  0  0
    5.4415    0.6498    0.4042 H   0  0  0  0  0  0  0  0  0  0  0  0
    6.3936    0.9670   -2.5142 H   0  0  0  0  0  0  0  0  0  0  0  0
    6.0273   -0.5803   -1.7146 H   0  0  0  0  0  0  0  0  0  0  0  0
    7.3852    0.4134   -1.1370 H   0  0  0  0  0  0  0  0  0  0  0  0
    6.0053    3.1865   -1.0048 H   0  0  0  0  0  0  0  0  0  0  0  0
    6.5747    4.7107    2.0072 H   0  0  0  0  0  0  0  0  0  0  0  0
    6.6268    4.9206    0.2446 H   0  0  0  0  0  0  0  0  0  0  0  0
    8.7228    5.5984   -0.6088 H   0  0  0  0  0  0  0  0  0  0  0  0
   11.2086    5.6509   -0.5031 H   0  0  0  0  0  0  0  0  0  0  0  0
   13.1456    3.3620   -0.5398 H   0  0  0  0  0  0  0  0  0  0  0  0
   13.2426    2.3403    0.9267 H   0  0  0  0  0  0  0  0  0  0  0  0
   14.5411    3.5177    0.5711 H   0  0  0  0  0  0  0  0  0  0  0  0
   12.4522    7.2080    1.9349 H   0  0  0  0  0  0  0  0  0  0  0  0
   14.0655    7.0338    1.1214 H   0  0  0  0  0  0  0  0  0  0  0  0
   13.9687    7.4651    2.8754 H   0  0  0  0  0  0  0  0  0  0  0  0
   11.1232    3.1253    2.9788 H   0  0  0  0  0  0  0  0  0  0  0  0
    8.6315    3.0542    2.8666 H   0  0  0  0  0  0  0  0  0  0  0  0
  1  2  1  0
  1 22  1  0
  1 23  1  0
  1 24  1  0
  2  3  1  0
  2 25  1  0
  2 26  1  0
  3  4  1  0
  3 27  1  0
  3 28  1  0
  4  5  1  0
  4  6  1  0
  4 29  1  1
  5 30  1  0
  5 31  1  0
  5 32  1  0
  6  7  1  0
  6 33  1  0
  7  8  2  0
  7  9  1  0
  9 10  1  0
  9 34  1  0
  9 35  1  0
 10 11  2  0
 10 21  1  0
 11 12  1  0
 11 36  1  0
 12 13  2  0
 12 37  1  0
 13 14  1  0
 13 20  1  0
 14 15  1  0
 16 14  1  6
 15 38  1  0
 15 39  1  0
 15 40  1  0
 16 17  1  0
 16 18  2  0
 16 19  2  0
 17 41  1  0
 17 42  1  0
 17 43  1  0
 20 21  2  0
 20 44  1  0
 21 45  1  0
M  END

