
     RDKit          3D

 44 46  0  0  0  0  0  0  0  0999 V2000
    4.7227    1.4316    3.2403 C   0  0  0  0  0  0  0  0  0  0  0  0
    4.2111    1.8376    1.9717 O   0  0  0  0  0  0  0  0  0  0  0  0
    5.1312    2.2290    1.0631 C   0  0  0  0  0  0  0  0  0  0  0  0
    6.3231    2.2500    1.2619 O   0  0  0  0  0  0  0  0  0  0  0  0
    4.4798    2.5873   -0.0967 N   0  0  0  0  0  0  0  0  0  0  0  0
    5.0313    3.0576   -1.2930 C   0  0  0  0  0  0  0  0  0  0  0  0
    6.4142    3.2564   -1.4788 C   0  0  0  0  0  0  0  0  0  0  0  0
    6.8859    3.7312   -2.7008 C   0  0  0  0  0  0  0  0  0  0  0  0
    5.9963    4.0017   -3.7463 C   0  0  0  0  0  0  0  0  0  0  0  0
    6.6255    4.5857   -5.3207 S   0  0  1  0  0  0  0  0  0  0  0  0
    5.5050    5.2003   -6.0359 O   0  0  0  0  0  0  0  0  0  0  0  0
    7.8840    5.2810   -5.0597 O   0  0  0  0  0  0  0  0  0  0  0  0
    7.0570    3.2363   -6.2145 N   0  0  0  0  0  0  0  0  0  0  0  0
    6.0679    2.3587   -6.8178 C   0  0  0  0  0  0  0  0  0  0  0  0
    6.5649    1.7464   -8.1131 C   0  0  0  0  0  0  0  0  0  0  0  0
    7.3325    2.4849   -9.0238 C   0  0  0  0  0  0  0  0  0  0  0  0
    7.7245    1.8708  -10.2171 C   0  0  0  0  0  0  0  0  0  0  0  0
    7.4135    0.6187  -10.5459 N   0  0  0  0  0  0  0  0  0  0  0  0
    6.6801   -0.0970   -9.6771 C   0  0  0  0  0  0  0  0  0  0  0  0
    6.3645   -1.4668  -10.0732 C   0  0  0  0  0  0  0  0  0  0  0  0
    6.6784   -2.1951  -11.1952 C   0  0  0  0  0  0  0  0  0  0  0  0
    6.0882   -3.4845  -11.0155 C   0  0  0  0  0  0  0  0  0  0  0  0
    5.4600   -3.4473   -9.8008 C   0  0  0  0  0  0  0  0  0  0  0  0
    5.6208   -2.2324   -9.2227 O   0  0  0  0  0  0  0  0  0  0  0  0
    6.2397    0.4304   -8.4481 C   0  0  0  0  0  0  0  0  0  0  0  0
    4.6206    3.8233   -3.5678 C   0  0  0  0  0  0  0  0  0  0  0  0
    4.1450    3.3514   -2.3484 C   0  0  0  0  0  0  0  0  0  0  0  0
    3.8496    1.1562    3.8444 H   0  0  0  0  0  0  0  0  0  0  0  0
    5.2750    2.2525    3.7220 H   0  0  0  0  0  0  0  0  0  0  0  0
    5.3985    0.5696    3.1337 H   0  0  0  0  0  0  0  0  0  0  0  0
    3.4705    2.4971   -0.0627 H   0  0  0  0  0  0  0  0  0  0  0  0
    7.0998    3.0463   -0.6608 H   0  0  0  0  0  0  0  0  0  0  0  0
    7.9536    3.9131   -2.8393 H   0  0  0  0  0  0  0  0  0  0  0  0
    7.9322    2.8214   -5.9017 H   0  0  0  0  0  0  0  0  0  0  0  0
    5.1866    2.9839   -7.0364 H   0  0  0  0  0  0  0  0  0  0  0  0
    5.7366    1.5556   -6.1326 H   0  0  0  0  0  0  0  0  0  0  0  0
    7.6199    3.5137   -8.7999 H   0  0  0  0  0  0  0  0  0  0  0  0
    8.3248    2.4291  -10.9456 H   0  0  0  0  0  0  0  0  0  0  0  0
    7.2630   -1.8281  -12.0342 H   0  0  0  0  0  0  0  0  0  0  0  0
    6.1243   -4.3305  -11.6987 H   0  0  0  0  0  0  0  0  0  0  0  0
    4.8819   -4.1743   -9.2361 H   0  0  0  0  0  0  0  0  0  0  0  0
    5.6531   -0.1946   -7.7719 H   0  0  0  0  0  0  0  0  0  0  0  0
    3.9311    4.0749   -4.3754 H   0  0  0  0  0  0  0  0  0  0  0  0
    3.0692    3.2167   -2.2044 H   0  0  0  0  0  0  0  0  0  0  0  0
  1  2  1  0
  1 28  1  0
  1 29  1  0
  1 30  1  0
  2  3  1  0
  3  4  2  0
  3  5  1  0
  5  6  1  0
  5 31  1  0
  6  7  2  0
  6 27  1  0
  7  8  1  0
  7 32  1  0
  8  9  2  0
  8 33  1  0
  9 10  1  0
  9 26  1  0
 10 11  2  0
 10 12  2  0
 10 13  1  6
 13 14  1  0
 13 34  1  0
 14 15  1  0
 14 35  1  0
 14 36  1  0
 15 16  2  0
 15 25  1  0
 16 17  1  0
 16 37  1  0
 17 18  2  0
 17 38  1  0
 18 19  1  0
 19 20  1  0
 19 25  2  0
 20 21  2  0
 20 24  1  0
 21 22  1  0
 21 39  1  0
 22 23  2  0
 22 40  1  0
 23 24  1  0
 23 41  1  0
 25 42  1  0
 26 27  2  0
 26 43  1  0
 27 44  1  0
M  END

