
     RDKit          3D

 41 42  0  0  0  0  0  0  0  0999 V2000
    0.6827    0.1073    0.6693 C   0  0  0  0  0  0  0  0  0  0  0  0
    2.1265    0.0222    0.1744 C   0  0  0  0  0  0  0  0  0  0  0  0
    2.9890    1.0470    0.7583 N   0  0  0  0  0  0  0  0  0  0  0  0
    4.4074    0.7212    0.8400 C   0  0  0  0  0  0  0  0  0  0  0  0
    5.1682    0.9301   -0.4790 C   0  0  0  0  0  0  0  0  0  0  0  0
    4.9482    2.2942   -0.9694 N   0  0  0  0  0  0  0  0  0  0  0  0
    6.0307    3.0633   -1.2924 C   0  0  0  0  0  0  0  0  0  0  0  0
    7.1790    2.6603   -1.2198 O   0  0  0  0  0  0  0  0  0  0  0  0
    5.7629    4.5203   -1.7830 C   0  0  1  0  0  0  0  0  0  0  0  0
    5.1600    5.3185   -0.7088 C   0  0  0  0  0  0  0  0  0  0  0  0
    4.6980    5.9322    0.1597 N   0  0  0  0  0  0  0  0  0  0  0  0
    7.0703    5.1619   -2.3172 C   0  0  0  0  0  0  0  0  0  0  0  0
    6.8520    6.4910   -3.0050 C   0  0  0  0  0  0  0  0  0  0  0  0
    6.9154    7.6982   -2.2909 C   0  0  0  0  0  0  0  0  0  0  0  0
    6.6935    8.9210   -2.9307 C   0  0  0  0  0  0  0  0  0  0  0  0
    6.4049    8.9573   -4.2979 C   0  0  0  0  0  0  0  0  0  0  0  0
    6.3416    7.7629   -5.0220 C   0  0  0  0  0  0  0  0  0  0  0  0
    6.5641    6.5424   -4.3790 C   0  0  0  0  0  0  0  0  0  0  0  0
    3.5347    2.6549   -1.0868 C   0  0  0  0  0  0  0  0  0  0  0  0
    2.8073    2.4001    0.2483 C   0  0  0  0  0  0  0  0  0  0  0  0
    0.0847   -0.7202    0.2549 H   0  0  0  0  0  0  0  0  0  0  0  0
    0.1934    1.0465    0.3653 H   0  0  0  0  0  0  0  0  0  0  0  0
    0.6493    0.0513    1.7683 H   0  0  0  0  0  0  0  0  0  0  0  0
    2.1304    0.0253   -0.9392 H   0  0  0  0  0  0  0  0  0  0  0  0
    2.5409   -0.9561    0.4684 H   0  0  0  0  0  0  0  0  0  0  0  0
    4.5254   -0.3213    1.1757 H   0  0  0  0  0  0  0  0  0  0  0  0
    4.8692    1.3663    1.6093 H   0  0  0  0  0  0  0  0  0  0  0  0
    4.8195    0.2108   -1.2442 H   0  0  0  0  0  0  0  0  0  0  0  0
    6.2483    0.7887   -0.3501 H   0  0  0  0  0  0  0  0  0  0  0  0
    5.0312    4.4856   -2.6089 H   0  0  0  0  0  0  0  0  0  0  0  0
    7.5166    4.4367   -3.0118 H   0  0  0  0  0  0  0  0  0  0  0  0
    7.7757    5.2579   -1.4798 H   0  0  0  0  0  0  0  0  0  0  0  0
    7.1404    7.6802   -1.2213 H   0  0  0  0  0  0  0  0  0  0  0  0
    6.7487    9.8499   -2.3574 H   0  0  0  0  0  0  0  0  0  0  0  0
    6.2345    9.9137   -4.7989 H   0  0  0  0  0  0  0  0  0  0  0  0
    6.1247    7.7816   -6.0933 H   0  0  0  0  0  0  0  0  0  0  0  0
    6.5245    5.6130   -4.9558 H   0  0  0  0  0  0  0  0  0  0  0  0
    3.0787    2.0476   -1.8920 H   0  0  0  0  0  0  0  0  0  0  0  0
    3.4173    3.7071   -1.3678 H   0  0  0  0  0  0  0  0  0  0  0  0
    1.7352    2.6147    0.1252 H   0  0  0  0  0  0  0  0  0  0  0  0
    3.1961    3.1183    0.9914 H   0  0  0  0  0  0  0  0  0  0  0  0
  1  2  1  0
  1 21  1  0
  1 22  1  0
  1 23  1  0
  2  3  1  0
  2 24  1  0
  2 25  1  0
  3  4  1  0
  3 20  1  0
  4  5  1  0
  4 26  1  0
  4 27  1  0
  5  6  1  0
  5 28  1  0
  5 29  1  0
  6  7  1  0
  6 19  1  0
  7  8  2  0
  7  9  1  0
  9 10  1  0
  9 12  1  0
  9 30  1  6
 10 11  3  0
 12 13  1  0
 12 31  1  0
 12 32  1  0
 13 14  2  0
 13 18  1  0
 14 15  1  0
 14 33  1  0
 15 16  2  0
 15 34  1  0
 16 17  1  0
 16 35  1  0
 17 18  2  0
 17 36  1  0
 18 37  1  0
 19 20  1  0
 19 38  1  0
 19 39  1  0
 20 40  1  0
 20 41  1  0
M  END

