
     RDKit          3D

 56 59  0  0  0  0  0  0  0  0999 V2000
    2.3272   -2.5196   -0.8007 C   0  0  0  0  0  0  0  0  0  0  0  0
    3.0012   -1.2204   -0.3592 C   0  0  0  0  0  0  0  0  0  0  0  0
    3.6946   -1.3269    1.0030 C   0  0  0  0  0  0  0  0  0  0  0  0
    4.3146   -0.0078    1.4850 C   0  0  1  0  0  0  0  0  0  0  0  0
    3.3273    1.0180    1.5311 O   0  0  0  0  0  0  0  0  0  0  0  0
    5.0447   -0.1245    2.8493 C   0  0  1  0  0  0  0  0  0  0  0  0
    6.2538   -1.0892    2.8437 C   0  0  0  0  0  0  0  0  0  0  0  0
    7.4779   -0.4919    2.1279 C   0  0  0  0  0  0  0  0  0  0  0  0
    7.8687    0.8214    2.6473 N   0  0  0  0  0  0  0  0  0  0  0  0
    8.5359    0.7587    3.8590 N   0  0  0  0  0  0  0  0  0  0  0  0
    9.8396    1.1164    4.0098 C   0  0  0  0  0  0  0  0  0  0  0  0
   10.5797    1.5355    2.9772 N   0  0  0  0  0  0  0  0  0  0  0  0
   11.8487    1.8677    3.1962 C   0  0  0  0  0  0  0  0  0  0  0  0
   12.7341    2.4047    1.7788 Cl  0  0  0  0  0  0  0  0  0  0  0  0
   12.5397    1.8512    4.3252 N   0  0  0  0  0  0  0  0  0  0  0  0
   11.7917    1.4295    5.3508 C   0  0  0  0  0  0  0  0  0  0  0  0
   10.4467    1.0438    5.2909 C   0  0  0  0  0  0  0  0  0  0  0  0
    9.9871    0.6659    6.5328 N   0  0  0  0  0  0  0  0  0  0  0  0
   11.0249    0.8195    7.3198 C   0  0  0  0  0  0  0  0  0  0  0  0
   12.1574    1.2807    6.6716 N   0  0  0  0  0  0  0  0  0  0  0  0
   13.4784    1.5658    7.2203 C   0  0  1  0  0  0  0  0  0  0  0  0
   13.5127    2.6244    8.3354 C   0  0  0  0  0  0  0  0  0  0  0  0
   14.9329    2.4636    8.8893 C   0  0  0  0  0  0  0  0  0  0  0  0
   15.1798    0.9332    8.8898 C   0  0  0  0  0  0  0  0  0  0  0  0
   14.2066    0.3433    7.8321 C   0  0  0  0  0  0  0  0  0  0  0  0
    6.7529    1.7735    2.6447 C   0  0  0  0  0  0  0  0  0  0  0  0
    5.5066    1.2536    3.3792 C   0  0  0  0  0  0  0  0  0  0  0  0
    1.8431   -2.4082   -1.7840 H   0  0  0  0  0  0  0  0  0  0  0  0
    1.5506   -2.8341   -0.0829 H   0  0  0  0  0  0  0  0  0  0  0  0
    3.0535   -3.3463   -0.8803 H   0  0  0  0  0  0  0  0  0  0  0  0
    2.2632   -0.4031   -0.3181 H   0  0  0  0  0  0  0  0  0  0  0  0
    3.7449   -0.9124   -1.1164 H   0  0  0  0  0  0  0  0  0  0  0  0
    4.4698   -2.1099    0.9557 H   0  0  0  0  0  0  0  0  0  0  0  0
    2.9670   -1.6706    1.7655 H   0  0  0  0  0  0  0  0  0  0  0  0
    5.0251    0.3392    0.7152 H   0  0  0  0  0  0  0  0  0  0  0  0
    2.6519    0.7492    2.1707 H   0  0  0  0  0  0  0  0  0  0  0  0
    4.2948   -0.5262    3.5585 H   0  0  0  0  0  0  0  0  0  0  0  0
    5.9967   -2.0614    2.3946 H   0  0  0  0  0  0  0  0  0  0  0  0
    6.5257   -1.3125    3.8911 H   0  0  0  0  0  0  0  0  0  0  0  0
    7.2699   -0.3659    1.0515 H   0  0  0  0  0  0  0  0  0  0  0  0
    8.3467   -1.1623    2.2037 H   0  0  0  0  0  0  0  0  0  0  0  0
    8.0587    0.4544    4.7078 H   0  0  0  0  0  0  0  0  0  0  0  0
   11.0296    0.6133    8.3905 H   0  0  0  0  0  0  0  0  0  0  0  0
   14.0559    1.9422    6.3622 H   0  0  0  0  0  0  0  0  0  0  0  0
   12.7656    2.3790    9.1111 H   0  0  0  0  0  0  0  0  0  0  0  0
   13.2882    3.6365    7.9657 H   0  0  0  0  0  0  0  0  0  0  0  0
   15.0634    2.9200    9.8820 H   0  0  0  0  0  0  0  0  0  0  0  0
   15.6458    2.9617    8.2110 H   0  0  0  0  0  0  0  0  0  0  0  0
   14.9650    0.5088    9.8831 H   0  0  0  0  0  0  0  0  0  0  0  0
   16.2305    0.6926    8.6691 H   0  0  0  0  0  0  0  0  0  0  0  0
   13.4713   -0.3259    8.3062 H   0  0  0  0  0  0  0  0  0  0  0  0
   14.7157   -0.2471    7.0559 H   0  0  0  0  0  0  0  0  0  0  0  0
    6.5094    1.9877    1.5903 H   0  0  0  0  0  0  0  0  0  0  0  0
    7.1081    2.7176    3.0832 H   0  0  0  0  0  0  0  0  0  0  0  0
    4.6904    1.9842    3.2840 H   0  0  0  0  0  0  0  0  0  0  0  0
    5.7283    1.1642    4.4582 H   0  0  0  0  0  0  0  0  0  0  0  0
  1  2  1  0
  1 28  1  0
  1 29  1  0
  1 30  1  0
  2  3  1  0
  2 31  1  0
  2 32  1  0
  3  4  1  0
  3 33  1  0
  3 34  1  0
  4  5  1  0
  4  6  1  0
  4 35  1  6
  5 36  1  0
  6  7  1  0
  6 27  1  0
  6 37  1  1
  7  8  1  0
  7 38  1  0
  7 39  1  0
  8  9  1  0
  8 40  1  0
  8 41  1  0
  9 10  1  0
  9 26  1  0
 10 11  1  0
 10 42  1  0
 11 12  2  0
 11 17  1  0
 12 13  1  0
 13 14  1  0
 13 15  2  0
 15 16  1  0
 16 17  2  0
 16 20  1  0
 17 18  1  0
 18 19  2  0
 19 20  1  0
 19 43  1  0
 20 21  1  0
 21 22  1  0
 21 25  1  0
 21 44  1  6
 22 23  1  0
 22 45  1  0
 22 46  1  0
 23 24  1  0
 23 47  1  0
 23 48  1  0
 24 25  1  0
 24 49  1  0
 24 50  1  0
 25 51  1  0
 25 52  1  0
 26 27  1  0
 26 53  1  0
 26 54  1  0
 27 55  1  0
 27 56  1  0
M  END

