
     RDKit          3D

 35 37  0  0  0  0  0  0  0  0999 V2000
    2.3806    3.3867   -1.0321 C   0  0  0  0  0  0  0  0  0  0  0  0
    3.1919    2.1990   -1.2276 N   0  0  0  0  0  0  0  0  0  0  0  0
    2.7972    1.0158   -0.4686 C   0  0  0  0  0  0  0  0  0  0  0  0
    3.5324   -0.2496   -0.9273 C   0  0  0  0  0  0  0  0  0  0  0  0
    4.9454   -0.0429   -1.1780 N   0  0  0  0  0  0  0  0  0  0  0  0
    5.9026   -0.0792   -0.0729 C   0  0  1  0  0  0  0  0  0  0  0  0
    5.8273    1.0019    1.0671 C   0  0  0  0  0  0  0  0  0  0  0  0
    5.2776    0.2975    2.3315 C   0  0  0  0  0  0  0  0  0  0  0  0
    5.4926   -1.1734    2.0474 C   0  0  0  0  0  0  0  0  0  0  0  0
    5.3759   -2.2639    2.9167 C   0  0  0  0  0  0  0  0  0  0  0  0
    5.5901   -3.5579    2.4337 C   0  0  0  0  0  0  0  0  0  0  0  0
    5.9106   -3.7398    1.0857 C   0  0  0  0  0  0  0  0  0  0  0  0
    6.1125   -4.9882    0.6332 F   0  0  0  0  0  0  0  0  0  0  0  0
    6.0288   -2.6713    0.2005 C   0  0  0  0  0  0  0  0  0  0  0  0
    5.8252   -1.3837    0.7029 C   0  0  0  0  0  0  0  0  0  0  0  0
    5.1336    0.9880   -2.1790 C   0  0  0  0  0  0  0  0  0  0  0  0
    4.3129    2.2747   -2.0206 C   0  0  0  0  0  0  0  0  0  0  0  0
    4.6346    3.2851   -2.6258 O   0  0  0  0  0  0  0  0  0  0  0  0
    1.3392    3.2068   -1.3524 H   0  0  0  0  0  0  0  0  0  0  0  0
    2.8085    4.2016   -1.6278 H   0  0  0  0  0  0  0  0  0  0  0  0
    2.3636    3.6818    0.0328 H   0  0  0  0  0  0  0  0  0  0  0  0
    1.7078    0.8673   -0.5873 H   0  0  0  0  0  0  0  0  0  0  0  0
    2.9651    1.1988    0.6101 H   0  0  0  0  0  0  0  0  0  0  0  0
    3.0717   -0.6043   -1.8681 H   0  0  0  0  0  0  0  0  0  0  0  0
    3.3884   -1.0474   -0.1837 H   0  0  0  0  0  0  0  0  0  0  0  0
    6.8889   -0.0030   -0.5605 H   0  0  0  0  0  0  0  0  0  0  0  0
    5.2407    1.8823    0.7693 H   0  0  0  0  0  0  0  0  0  0  0  0
    6.8486    1.3612    1.2689 H   0  0  0  0  0  0  0  0  0  0  0  0
    4.2037    0.5052    2.4921 H   0  0  0  0  0  0  0  0  0  0  0  0
    5.7912    0.6287    3.2486 H   0  0  0  0  0  0  0  0  0  0  0  0
    5.1183   -2.1146    3.9688 H   0  0  0  0  0  0  0  0  0  0  0  0
    5.5131   -4.4330    3.0822 H   0  0  0  0  0  0  0  0  0  0  0  0
    6.2710   -2.8519   -0.8487 H   0  0  0  0  0  0  0  0  0  0  0  0
    4.8736    0.5937   -3.1821 H   0  0  0  0  0  0  0  0  0  0  0  0
    6.1874    1.2951   -2.2347 H   0  0  0  0  0  0  0  0  0  0  0  0
  1  2  1  0
  1 19  1  0
  1 20  1  0
  1 21  1  0
  2  3  1  0
  2 17  1  0
  3  4  1  0
  3 22  1  0
  3 23  1  0
  4  5  1  0
  4 24  1  0
  4 25  1  0
  5  6  1  0
  5 16  1  0
  6  7  1  0
  6 15  1  0
  6 26  1  6
  7  8  1  0
  7 27  1  0
  7 28  1  0
  8  9  1  0
  8 29  1  0
  8 30  1  0
  9 10  1  0
  9 15  2  0
 10 11  2  0
 10 31  1  0
 11 12  1  0
 11 32  1  0
 12 13  1  0
 12 14  2  0
 14 15  1  0
 14 33  1  0
 16 17  1  0
 16 34  1  0
 16 35  1  0
 17 18  2  0
M  END

