
     RDKit          3D

 42 43  0  0  0  0  0  0  0  0999 V2000
    4.9708    1.4795   -0.9205 C   0  0  0  0  0  0  0  0  0  0  0  0
    4.5859    0.2202   -0.4106 O   0  0  0  0  0  0  0  0  0  0  0  0
    4.1829    0.1329    0.8864 C   0  0  0  0  0  0  0  0  0  0  0  0
    4.0559    1.2212    1.7476 C   0  0  0  0  0  0  0  0  0  0  0  0
    3.6493    1.0439    3.0841 C   0  0  0  0  0  0  0  0  0  0  0  0
    3.5442    2.2706    3.9397 C   0  0  0  0  0  0  0  0  0  0  0  0
    3.1195    2.1140    5.3896 C   0  0  0  0  0  0  0  0  0  0  0  0
    3.7942    3.3721    3.4837 O   0  0  0  0  0  0  0  0  0  0  0  0
    3.3672   -0.2473    3.5513 C   0  0  0  0  0  0  0  0  0  0  0  0
    3.4827   -1.3419    2.6918 C   0  0  0  0  0  0  0  0  0  0  0  0
    3.8900   -1.1713    1.3683 C   0  0  0  0  0  0  0  0  0  0  0  0
    4.0739   -2.2726    0.5870 O   0  0  0  0  0  0  0  0  0  0  0  0
    3.2339   -2.4610   -0.5465 C   0  0  1  0  0  0  0  0  0  0  0  0
    3.8235   -3.6301   -1.3292 C   0  0  0  0  0  0  0  0  0  0  0  0
    1.7968   -2.7939   -0.0895 C   0  0  0  0  0  0  0  0  0  0  0  0
    1.5832   -3.3516    0.9760 O   0  0  0  0  0  0  0  0  0  0  0  0
    0.7868   -2.4856   -0.9547 N   0  0  0  0  0  0  0  0  0  0  0  0
   -0.5922   -2.8759   -0.6297 C   0  0  0  0  0  0  0  0  0  0  0  0
   -1.3495   -2.6415   -1.9407 C   0  0  0  0  0  0  0  0  0  0  0  0
   -0.5918   -1.4666   -2.5749 C   0  0  0  0  0  0  0  0  0  0  0  0
    0.8753   -1.7653   -2.2310 C   0  0  0  0  0  0  0  0  0  0  0  0
    5.2878    1.3124   -1.9587 H   0  0  0  0  0  0  0  0  0  0  0  0
    5.8139    1.9084   -0.3509 H   0  0  0  0  0  0  0  0  0  0  0  0
    4.1349    2.2015   -0.9102 H   0  0  0  0  0  0  0  0  0  0  0  0
    4.2735    2.2396    1.4270 H   0  0  0  0  0  0  0  0  0  0  0  0
    2.1220    1.6516    5.4620 H   0  0  0  0  0  0  0  0  0  0  0  0
    3.0970    3.1057    5.8588 H   0  0  0  0  0  0  0  0  0  0  0  0
    3.8200    1.4646    5.9389 H   0  0  0  0  0  0  0  0  0  0  0  0
    3.0463   -0.4128    4.5809 H   0  0  0  0  0  0  0  0  0  0  0  0
    3.2479   -2.3568    3.0142 H   0  0  0  0  0  0  0  0  0  0  0  0
    3.2468   -1.5516   -1.1656 H   0  0  0  0  0  0  0  0  0  0  0  0
    3.8243   -4.5301   -0.6964 H   0  0  0  0  0  0  0  0  0  0  0  0
    4.8592   -3.3984   -1.6177 H   0  0  0  0  0  0  0  0  0  0  0  0
    3.2382   -3.8362   -2.2380 H   0  0  0  0  0  0  0  0  0  0  0  0
   -0.9838   -2.2485    0.1917 H   0  0  0  0  0  0  0  0  0  0  0  0
   -0.6202   -3.9164   -0.2740 H   0  0  0  0  0  0  0  0  0  0  0  0
   -2.4180   -2.4346   -1.7817 H   0  0  0  0  0  0  0  0  0  0  0  0
   -1.2755   -3.5330   -2.5862 H   0  0  0  0  0  0  0  0  0  0  0  0
   -0.9004   -0.5192   -2.1022 H   0  0  0  0  0  0  0  0  0  0  0  0
   -0.7566   -1.3668   -3.6580 H   0  0  0  0  0  0  0  0  0  0  0  0
    1.4757   -0.8466   -2.1409 H   0  0  0  0  0  0  0  0  0  0  0  0
    1.3445   -2.3904   -3.0140 H   0  0  0  0  0  0  0  0  0  0  0  0
  1  2  1  0
  1 22  1  0
  1 23  1  0
  1 24  1  0
  2  3  1  0
  3  4  2  0
  3 11  1  0
  4  5  1  0
  4 25  1  0
  5  6  1  0
  5  9  2  0
  6  7  1  0
  6  8  2  0
  7 26  1  0
  7 27  1  0
  7 28  1  0
  9 10  1  0
  9 29  1  0
 10 11  2  0
 10 30  1  0
 11 12  1  0
 12 13  1  0
 13 14  1  0
 13 15  1  0
 13 31  1  6
 14 32  1  0
 14 33  1  0
 14 34  1  0
 15 16  2  0
 15 17  1  0
 17 18  1  0
 17 21  1  0
 18 19  1  0
 18 35  1  0
 18 36  1  0
 19 20  1  0
 19 37  1  0
 19 38  1  0
 20 21  1  0
 20 39  1  0
 20 40  1  0
 21 41  1  0
 21 42  1  0
M  END

