
     RDKit          3D

 63 65  0  0  0  0  0  0  0  0999 V2000
    7.0359   -0.7464    2.1767 C   0  0  0  0  0  0  0  0  0  0  0  0
    6.1720    0.4699    1.8336 C   0  0  0  0  0  0  0  0  0  0  0  0
    5.5643    0.4545    0.4201 C   0  0  1  0  0  0  0  0  0  0  0  0
    4.5825   -0.7001    0.1767 C   0  0  0  0  0  0  0  0  0  0  0  0
    4.0635   -0.6755   -1.1277 O   0  0  0  0  0  0  0  0  0  0  0  0
    4.8678    1.6997    0.1078 N   0  0  0  0  0  0  0  0  0  0  0  0
    5.4766    2.8167   -0.4346 C   0  0  0  0  0  0  0  0  0  0  0  0
    6.6663    2.6447   -1.0317 N   0  0  0  0  0  0  0  0  0  0  0  0
    7.2835    3.6842   -1.6200 C   0  0  0  0  0  0  0  0  0  0  0  0
    8.4739    3.4226   -2.2116 N   0  0  0  0  0  0  0  0  0  0  0  0
    9.3729    4.3656   -2.8483 C   0  0  0  0  0  0  0  0  0  0  0  0
    9.7653    3.9628   -4.2583 C   0  0  0  0  0  0  0  0  0  0  0  0
    8.9843    3.1078   -5.0534 C   0  0  0  0  0  0  0  0  0  0  0  0
    9.3738    2.7755   -6.3499 C   0  0  0  0  0  0  0  0  0  0  0  0
   10.5604    3.2911   -6.8903 C   0  0  0  0  0  0  0  0  0  0  0  0
   11.3450    4.1420   -6.1123 C   0  0  0  0  0  0  0  0  0  0  0  0
   12.5269    4.7229   -6.4912 O   0  0  0  0  0  0  0  0  0  0  0  0
   13.0389    4.4636   -7.7791 C   0  0  0  0  0  0  0  0  0  0  0  0
   10.9488    4.4802   -4.7996 C   0  0  0  0  0  0  0  0  0  0  0  0
   11.7277    5.3135   -4.0623 O   0  0  0  0  0  0  0  0  0  0  0  0
    6.6458    4.9552   -1.5782 C   0  0  0  0  0  0  0  0  0  0  0  0
    6.9661    6.2160   -2.0488 N   0  0  0  0  0  0  0  0  0  0  0  0
    5.9660    6.9730   -1.6811 C   0  0  0  0  0  0  0  0  0  0  0  0
    4.9810    6.2926   -0.9827 N   0  0  0  0  0  0  0  0  0  0  0  0
    3.7302    6.8179   -0.4238 C   0  0  1  0  0  0  0  0  0  0  0  0
    3.9960    7.8604    0.6764 C   0  0  0  0  0  0  0  0  0  0  0  0
    4.8393    7.3466    1.8430 C   0  0  0  0  0  0  0  0  0  0  0  0
    2.7987    7.3528   -1.5255 C   0  0  0  0  0  0  0  0  0  0  0  0
    2.4258    6.3236   -2.5923 C   0  0  0  0  0  0  0  0  0  0  0  0
    5.4082    4.9844   -0.9081 C   0  0  0  0  0  0  0  0  0  0  0  0
    4.7853    3.9624   -0.3224 N   0  0  0  0  0  0  0  0  0  0  0  0
    7.5159   -0.6221    3.1603 H   0  0  0  0  0  0  0  0  0  0  0  0
    7.8373   -0.8880    1.4325 H   0  0  0  0  0  0  0  0  0  0  0  0
    6.4511   -1.6791    2.2159 H   0  0  0  0  0  0  0  0  0  0  0  0
    6.7824    1.3844    1.9184 H   0  0  0  0  0  0  0  0  0  0  0  0
    5.3579    0.5735    2.5757 H   0  0  0  0  0  0  0  0  0  0  0  0
    6.3755    0.3733   -0.3181 H   0  0  0  0  0  0  0  0  0  0  0  0
    3.7755   -0.6535    0.9447 H   0  0  0  0  0  0  0  0  0  0  0  0
    5.0921   -1.6667    0.3132 H   0  0  0  0  0  0  0  0  0  0  0  0
    3.8966    0.2605   -1.3229 H   0  0  0  0  0  0  0  0  0  0  0  0
    4.0832    1.9440    0.7061 H   0  0  0  0  0  0  0  0  0  0  0  0
    8.7740    2.4570   -2.1199 H   0  0  0  0  0  0  0  0  0  0  0  0
   10.2909    4.4879   -2.2469 H   0  0  0  0  0  0  0  0  0  0  0  0
    8.8814    5.3505   -2.8576 H   0  0  0  0  0  0  0  0  0  0  0  0
    8.0596    2.7019   -4.6387 H   0  0  0  0  0  0  0  0  0  0  0  0
    8.7532    2.1096   -6.9539 H   0  0  0  0  0  0  0  0  0  0  0  0
   10.8603    3.0266   -7.9049 H   0  0  0  0  0  0  0  0  0  0  0  0
   13.9804    5.0227   -7.8649 H   0  0  0  0  0  0  0  0  0  0  0  0
   12.3454    4.8045   -8.5686 H   0  0  0  0  0  0  0  0  0  0  0  0
   13.2446    3.3882   -7.9264 H   0  0  0  0  0  0  0  0  0  0  0  0
   12.4960    5.5409   -4.6103 H   0  0  0  0  0  0  0  0  0  0  0  0
    5.8832    8.0405   -1.8868 H   0  0  0  0  0  0  0  0  0  0  0  0
    3.2557    5.9364    0.0374 H   0  0  0  0  0  0  0  0  0  0  0  0
    3.0153    8.2027    1.0487 H   0  0  0  0  0  0  0  0  0  0  0  0
    4.4732    8.7502    0.2271 H   0  0  0  0  0  0  0  0  0  0  0  0
    4.3710    6.4703    2.3198 H   0  0  0  0  0  0  0  0  0  0  0  0
    4.9614    8.1248    2.6127 H   0  0  0  0  0  0  0  0  0  0  0  0
    5.8455    7.0442    1.5132 H   0  0  0  0  0  0  0  0  0  0  0  0
    3.2638    8.2369   -1.9980 H   0  0  0  0  0  0  0  0  0  0  0  0
    1.8847    7.7239   -1.0310 H   0  0  0  0  0  0  0  0  0  0  0  0
    3.3122    5.9698   -3.1416 H   0  0  0  0  0  0  0  0  0  0  0  0
    1.7290    6.7549   -3.3279 H   0  0  0  0  0  0  0  0  0  0  0  0
    1.9408    5.4411   -2.1446 H   0  0  0  0  0  0  0  0  0  0  0  0
  1  2  1  0
  1 32  1  0
  1 33  1  0
  1 34  1  0
  2  3  1  0
  2 35  1  0
  2 36  1  0
  3  4  1  0
  3  6  1  0
  3 37  1  6
  4  5  1  0
  4 38  1  0
  4 39  1  0
  5 40  1  0
  6  7  1  0
  6 41  1  0
  7  8  2  0
  7 31  1  0
  8  9  1  0
  9 10  1  0
  9 21  2  0
 10 11  1  0
 10 42  1  0
 11 12  1  0
 11 43  1  0
 11 44  1  0
 12 13  2  0
 12 19  1  0
 13 14  1  0
 13 45  1  0
 14 15  2  0
 14 46  1  0
 15 16  1  0
 15 47  1  0
 16 17  1  0
 16 19  2  0
 17 18  1  0
 18 48  1  0
 18 49  1  0
 18 50  1  0
 19 20  1  0
 20 51  1  0
 21 22  1  0
 21 30  1  0
 22 23  2  0
 23 24  1  0
 23 52  1  0
 24 25  1  0
 24 30  1  0
 25 26  1  0
 25 28  1  0
 25 53  1  1
 26 27  1  0
 26 54  1  0
 26 55  1  0
 27 56  1  0
 27 57  1  0
 27 58  1  0
 28 29  1  0
 28 59  1  0
 28 60  1  0
 29 61  1  0
 29 62  1  0
 29 63  1  0
 30 31  2  0
M  END

