
     RDKit          3D

 43 43  0  0  0  0  0  0  0  0999 V2000
    0.4473    0.0060   -0.7071 C   0  0  0  0  0  0  0  0  0  0  0  0
    1.8131    0.5765   -0.3393 C   0  0  0  0  0  0  0  0  0  0  0  0
    2.7868    0.3065   -1.3900 N   0  0  0  0  0  0  0  0  0  0  0  0
    4.1687    0.7108   -1.1503 C   0  0  1  0  0  0  0  0  0  0  0  0
    5.1468   -0.4417   -1.5496 C   0  0  1  0  0  0  0  0  0  0  0  0
    5.0187   -0.9869   -2.9910 C   0  0  0  0  0  0  0  0  0  0  0  0
    5.9036   -0.2941   -4.0370 C   0  0  0  0  0  0  0  0  0  0  0  0
    7.3882   -0.2287   -3.6257 C   0  0  2  0  0  0  0  0  0  0  0  0
    8.0863   -1.5961   -3.6672 C   0  0  0  0  0  0  0  0  0  0  0  0
    7.4994    0.4577   -2.2494 C   0  0  0  0  0  0  0  0  0  0  0  0
    6.6287   -0.2049   -1.1671 C   0  0  0  0  0  0  0  0  0  0  0  0
    4.4444    2.1276   -1.6995 C   0  0  1  0  0  0  0  0  0  0  0  0
    3.9963    2.1875   -3.0164 O   0  0  0  0  0  0  0  0  0  0  0  0
    4.2151    3.4170   -3.6785 C   0  0  0  0  0  0  0  0  0  0  0  0
    3.7369    3.1066   -0.9530 O   0  0  0  0  0  0  0  0  0  0  0  0
    4.4272    3.6577    0.1392 C   0  0  0  0  0  0  0  0  0  0  0  0
   -0.2831    0.1731    0.1007 H   0  0  0  0  0  0  0  0  0  0  0  0
    0.5171   -1.0755   -0.9033 H   0  0  0  0  0  0  0  0  0  0  0  0
    0.0491    0.4867   -1.6172 H   0  0  0  0  0  0  0  0  0  0  0  0
    2.1690    0.0935    0.5889 H   0  0  0  0  0  0  0  0  0  0  0  0
    1.7132    1.6577   -0.1099 H   0  0  0  0  0  0  0  0  0  0  0  0
    2.4711    0.7040   -2.2735 H   0  0  0  0  0  0  0  0  0  0  0  0
    4.3032    0.8144   -0.0593 H   0  0  0  0  0  0  0  0  0  0  0  0
    4.7826   -1.2533   -0.8985 H   0  0  0  0  0  0  0  0  0  0  0  0
    3.9607   -0.9546   -3.2931 H   0  0  0  0  0  0  0  0  0  0  0  0
    5.2804   -2.0593   -2.9630 H   0  0  0  0  0  0  0  0  0  0  0  0
    5.5337    0.7300   -4.1976 H   0  0  0  0  0  0  0  0  0  0  0  0
    5.8053   -0.8170   -5.0046 H   0  0  0  0  0  0  0  0  0  0  0  0
    7.9092    0.4153   -4.3573 H   0  0  0  0  0  0  0  0  0  0  0  0
    7.6436   -2.3215   -2.9664 H   0  0  0  0  0  0  0  0  0  0  0  0
    9.1545   -1.5026   -3.4102 H   0  0  0  0  0  0  0  0  0  0  0  0
    8.0239   -2.0378   -4.6754 H   0  0  0  0  0  0  0  0  0  0  0  0
    7.2146    1.5169   -2.3701 H   0  0  0  0  0  0  0  0  0  0  0  0
    8.5515    0.4675   -1.9142 H   0  0  0  0  0  0  0  0  0  0  0  0
    6.6892    0.3790   -0.2307 H   0  0  0  0  0  0  0  0  0  0  0  0
    7.0724   -1.1855   -0.9234 H   0  0  0  0  0  0  0  0  0  0  0  0
    5.5265    2.3760   -1.6486 H   0  0  0  0  0  0  0  0  0  0  0  0
    3.8456    3.3020   -4.7070 H   0  0  0  0  0  0  0  0  0  0  0  0
    5.2932    3.6686   -3.7141 H   0  0  0  0  0  0  0  0  0  0  0  0
    3.6760    4.2417   -3.1854 H   0  0  0  0  0  0  0  0  0  0  0  0
    3.7873    4.4389    0.5748 H   0  0  0  0  0  0  0  0  0  0  0  0
    5.3877    4.1185   -0.1672 H   0  0  0  0  0  0  0  0  0  0  0  0
    4.6446    2.9119    0.9288 H   0  0  0  0  0  0  0  0  0  0  0  0
  1  2  1  0
  1 17  1  0
  1 18  1  0
  1 19  1  0
  2  3  1  0
  2 20  1  0
  2 21  1  0
  3  4  1  0
  3 22  1  0
  4  5  1  0
  4 12  1  0
  4 23  1  1
  5  6  1  0
  5 11  1  0
  5 24  1  1
  6  7  1  0
  6 25  1  0
  6 26  1  0
  7  8  1  0
  7 27  1  0
  7 28  1  0
  8  9  1  0
  8 10  1  0
  8 29  1  6
  9 30  1  0
  9 31  1  0
  9 32  1  0
 10 11  1  0
 10 33  1  0
 10 34  1  0
 11 35  1  0
 11 36  1  0
 12 13  1  0
 12 15  1  0
 12 37  1  6
 13 14  1  0
 14 38  1  0
 14 39  1  0
 14 40  1  0
 15 16  1  0
 16 41  1  0
 16 42  1  0
 16 43  1  0
M  END

