
     RDKit          3D

 35 36  0  0  0  0  0  0  0  0999 V2000
    0.8565   -0.4797    0.3230 C   0  0  0  0  0  0  0  0  0  0  0  0
    2.2579   -0.0613   -0.1419 C   0  0  1  0  0  0  0  0  0  0  0  0
    2.6827    1.2390    0.5536 C   0  0  0  0  0  0  0  0  0  0  0  0
    3.3077   -1.2063    0.0945 C   0  0  1  0  0  0  0  0  0  0  0  0
    2.8647   -2.5628   -0.2269 N   0  0  0  0  0  0  0  0  0  0  0  0
    2.7532   -2.8516   -1.6515 C   0  0  2  0  0  0  0  0  0  0  0  0
    2.1166   -4.2090   -1.8979 C   0  0  0  0  0  0  0  0  0  0  0  0
    2.4017   -5.3012   -1.0597 C   0  0  0  0  0  0  0  0  0  0  0  0
    1.8335   -6.5478   -1.3278 C   0  0  0  0  0  0  0  0  0  0  0  0
    0.9854   -6.7277   -2.4240 C   0  0  0  0  0  0  0  0  0  0  0  0
    0.6994   -5.6419   -3.2626 C   0  0  0  0  0  0  0  0  0  0  0  0
   -0.1192   -5.7425   -4.3419 O   0  0  0  0  0  0  0  0  0  0  0  0
    1.2651   -4.3871   -2.9931 C   0  0  0  0  0  0  0  0  0  0  0  0
    4.1746   -2.7974   -2.2262 C   0  0  0  0  0  0  0  0  0  0  0  0
    4.8459   -1.5806   -1.7986 N   0  0  0  0  0  0  0  0  0  0  0  0
    4.6137   -0.8855   -0.6435 C   0  0  0  0  0  0  0  0  0  0  0  0
    5.3756   -0.0110   -0.2620 O   0  0  0  0  0  0  0  0  0  0  0  0
    0.1488    0.3553    0.1995 H   0  0  0  0  0  0  0  0  0  0  0  0
    0.8563   -0.7516    1.3935 H   0  0  0  0  0  0  0  0  0  0  0  0
    0.4522   -1.3319   -0.2454 H   0  0  0  0  0  0  0  0  0  0  0  0
    2.2083    0.1340   -1.2290 H   0  0  0  0  0  0  0  0  0  0  0  0
    2.6852    1.1070    1.6496 H   0  0  0  0  0  0  0  0  0  0  0  0
    1.9770    2.0521    0.3181 H   0  0  0  0  0  0  0  0  0  0  0  0
    3.6933    1.5473    0.2567 H   0  0  0  0  0  0  0  0  0  0  0  0
    3.5693   -1.1892    1.1661 H   0  0  0  0  0  0  0  0  0  0  0  0
    2.0005   -2.7890    0.2587 H   0  0  0  0  0  0  0  0  0  0  0  0
    2.1474   -2.0940   -2.1937 H   0  0  0  0  0  0  0  0  0  0  0  0
    3.0608   -5.1605   -0.2015 H   0  0  0  0  0  0  0  0  0  0  0  0
    2.0519   -7.3973   -0.6753 H   0  0  0  0  0  0  0  0  0  0  0  0
    0.5420   -7.7077   -2.6279 H   0  0  0  0  0  0  0  0  0  0  0  0
   -0.4493   -6.6477   -4.4137 H   0  0  0  0  0  0  0  0  0  0  0  0
    1.0180   -3.5545   -3.6563 H   0  0  0  0  0  0  0  0  0  0  0  0
    4.1348   -2.8258   -3.3273 H   0  0  0  0  0  0  0  0  0  0  0  0
    4.7275   -3.6932   -1.8879 H   0  0  0  0  0  0  0  0  0  0  0  0
    5.7375   -1.3514   -2.2298 H   0  0  0  0  0  0  0  0  0  0  0  0
  1  2  1  0
  1 18  1  0
  1 19  1  0
  1 20  1  0
  2  3  1  0
  2  4  1  0
  2 21  1  6
  3 22  1  0
  3 23  1  0
  3 24  1  0
  4  5  1  0
  4 16  1  0
  4 25  1  1
  5  6  1  0
  5 26  1  0
  6  7  1  0
  6 14  1  0
  6 27  1  6
  7  8  2  0
  7 13  1  0
  8  9  1  0
  8 28  1  0
  9 10  2  0
  9 29  1  0
 10 11  1  0
 10 30  1  0
 11 12  1  0
 11 13  2  0
 12 31  1  0
 13 32  1  0
 14 15  1  0
 14 33  1  0
 14 34  1  0
 15 16  1  0
 15 35  1  0
 16 17  2  0
M  END

