
     RDKit          3D

 63 65  0  0  0  0  0  0  0  0999 V2000
    1.3138    0.6393   -0.8342 C   0  0  0  0  0  0  0  0  0  0  0  0
    2.6699    0.1894   -0.7315 O   0  0  0  0  0  0  0  0  0  0  0  0
    2.8681   -0.9848   -0.1169 C   0  0  0  0  0  0  0  0  0  0  0  0
    1.9710   -1.6664    0.3114 O   0  0  0  0  0  0  0  0  0  0  0  0
    4.3723   -1.3441   -0.0358 C   0  0  2  0  0  0  0  0  0  0  0  0
    4.9483   -1.4758   -1.4726 C   0  0  0  0  0  0  0  0  0  0  0  0
    6.4744   -1.5848   -1.5631 C   0  0  0  0  0  0  0  0  0  0  0  0
    6.9512   -1.7829   -3.0029 C   0  0  0  0  0  0  0  0  0  0  0  0
    8.7781   -1.8975   -3.0501 S   0  0  0  0  0  0  0  0  0  0  0  0
    9.0270   -2.1214   -4.8384 C   0  0  0  0  0  0  0  0  0  0  0  0
    4.5188   -2.6619    0.7660 C   0  0  0  0  0  0  0  0  0  0  0  0
    4.8544   -2.1926    2.1094 N   0  0  0  0  0  0  0  0  0  0  0  0
    5.3310   -3.0837    3.1403 C   0  0  0  0  0  0  0  0  0  0  0  0
    6.7666   -3.6287    2.9720 C   0  0  0  0  0  0  0  0  0  0  0  0
    7.0180   -4.8002    3.1789 O   0  0  0  0  0  0  0  0  0  0  0  0
    7.6832   -2.6710    2.6092 N   0  0  0  0  0  0  0  0  0  0  0  0
    9.0694   -2.8052    2.4142 C   0  0  0  0  0  0  0  0  0  0  0  0
    9.7558   -4.0225    2.5661 C   0  0  0  0  0  0  0  0  0  0  0  0
   11.1348   -4.0677    2.3547 C   0  0  0  0  0  0  0  0  0  0  0  0
   11.8468   -2.9210    1.9930 C   0  0  0  0  0  0  0  0  0  0  0  0
   13.3391   -2.9551    1.7974 C   0  0  1  0  0  0  0  0  0  0  0  0
   13.8153   -4.2098    1.7289 F   0  0  0  0  0  0  0  0  0  0  0  0
   13.7061   -2.3215    0.6662 F   0  0  0  0  0  0  0  0  0  0  0  0
   13.9886   -2.3400    2.8070 F   0  0  0  0  0  0  0  0  0  0  0  0
   11.1614   -1.7082    1.8381 C   0  0  0  0  0  0  0  0  0  0  0  0
    9.7887   -1.6508    2.0464 C   0  0  0  0  0  0  0  0  0  0  0  0
    5.3073   -0.9299    2.0827 N   0  0  0  0  0  0  0  0  0  0  0  0
    5.0855   -0.3615    0.9337 C   0  0  0  0  0  0  0  0  0  0  0  0
    5.4537    1.0519    0.7443 C   0  0  0  0  0  0  0  0  0  0  0  0
    5.3262    1.7321   -0.4803 C   0  0  0  0  0  0  0  0  0  0  0  0
    5.7211    3.0639   -0.6008 C   0  0  0  0  0  0  0  0  0  0  0  0
    6.2490    3.7751    0.4805 C   0  0  0  0  0  0  0  0  0  0  0  0
    6.6630    5.2194    0.3040 C   0  0  1  0  0  0  0  0  0  0  0  0
    6.4579    5.6327   -0.9610 F   0  0  0  0  0  0  0  0  0  0  0  0
    5.9657    6.0434    1.1033 F   0  0  0  0  0  0  0  0  0  0  0  0
    7.9651    5.4058    0.5717 F   0  0  0  0  0  0  0  0  0  0  0  0
    6.3676    3.1010    1.7127 C   0  0  0  0  0  0  0  0  0  0  0  0
    7.0016    3.9034    3.1296 Cl  0  0  0  0  0  0  0  0  0  0  0  0
    5.9773    1.7731    1.8406 C   0  0  0  0  0  0  0  0  0  0  0  0
    1.3552    1.6125   -1.3376 H   0  0  0  0  0  0  0  0  0  0  0  0
    0.8651    0.7428    0.1645 H   0  0  0  0  0  0  0  0  0  0  0  0
    0.7130   -0.0728   -1.4188 H   0  0  0  0  0  0  0  0  0  0  0  0
    4.6030   -0.6321   -2.0869 H   0  0  0  0  0  0  0  0  0  0  0  0
    4.4879   -2.3738   -1.9228 H   0  0  0  0  0  0  0  0  0  0  0  0
    6.8405   -2.4232   -0.9472 H   0  0  0  0  0  0  0  0  0  0  0  0
    6.9392   -0.6736   -1.1521 H   0  0  0  0  0  0  0  0  0  0  0  0
    6.6248   -0.9389   -3.6353 H   0  0  0  0  0  0  0  0  0  0  0  0
    6.5186   -2.7043   -3.4301 H   0  0  0  0  0  0  0  0  0  0  0  0
   10.1112   -2.2065   -4.9993 H   0  0  0  0  0  0  0  0  0  0  0  0
    8.6526   -1.2579   -5.4105 H   0  0  0  0  0  0  0  0  0  0  0  0
    8.5439   -3.0421   -5.2017 H   0  0  0  0  0  0  0  0  0  0  0  0
    5.3308   -3.2945    0.3616 H   0  0  0  0  0  0  0  0  0  0  0  0
    3.5826   -3.2359    0.7697 H   0  0  0  0  0  0  0  0  0  0  0  0
    4.6729   -3.9615    3.1923 H   0  0  0  0  0  0  0  0  0  0  0  0
    5.2670   -2.5560    4.1064 H   0  0  0  0  0  0  0  0  0  0  0  0
    7.3151   -1.7270    2.5117 H   0  0  0  0  0  0  0  0  0  0  0  0
    9.2044   -4.9167    2.8460 H   0  0  0  0  0  0  0  0  0  0  0  0
   11.6617   -5.0160    2.4720 H   0  0  0  0  0  0  0  0  0  0  0  0
   11.7022   -0.8054    1.5463 H   0  0  0  0  0  0  0  0  0  0  0  0
    9.2616   -0.7011    1.9192 H   0  0  0  0  0  0  0  0  0  0  0  0
    4.9010    1.2348   -1.3475 H   0  0  0  0  0  0  0  0  0  0  0  0
    5.6162    3.5698   -1.5610 H   0  0  0  0  0  0  0  0  0  0  0  0
    6.0711    1.2841    2.8091 H   0  0  0  0  0  0  0  0  0  0  0  0
  1  2  1  0
  1 40  1  0
  1 41  1  0
  1 42  1  0
  2  3  1  0
  3  4  2  0
  5  3  1  6
  5  6  1  0
  5 11  1  0
  5 28  1  0
  6  7  1  0
  6 43  1  0
  6 44  1  0
  7  8  1  0
  7 45  1  0
  7 46  1  0
  8  9  1  0
  8 47  1  0
  8 48  1  0
  9 10  1  0
 10 49  1  0
 10 50  1  0
 10 51  1  0
 11 12  1  0
 11 52  1  0
 11 53  1  0
 12 13  1  0
 12 27  1  0
 13 14  1  0
 13 54  1  0
 13 55  1  0
 14 15  2  0
 14 16  1  0
 16 17  1  0
 16 56  1  0
 17 18  2  0
 17 26  1  0
 18 19  1  0
 18 57  1  0
 19 20  2  0
 19 58  1  0
 20 21  1  0
 20 25  1  0
 21 22  1  6
 21 23  1  0
 21 24  1  0
 25 26  2  0
 25 59  1  0
 26 60  1  0
 27 28  2  0
 28 29  1  0
 29 30  2  0
 29 39  1  0
 30 31  1  0
 30 61  1  0
 31 32  2  0
 31 62  1  0
 32 33  1  0
 32 37  1  0
 33 34  1  6
 33 35  1  0
 33 36  1  0
 37 38  1  0
 37 39  2  0
 39 63  1  0
M  END

