
     RDKit          3D

115125  0  0  0  0  0  0  0  0999 V2000
    3.3008    1.0606    3.0724 C   0  0  0  0  0  0  0  0  0  0  0  0
    3.4145    0.8143    1.5673 C   0  0  0  0  0  0  0  0  0  0  0  0
    4.2190    1.8924    0.8324 C   0  0  0  0  0  0  0  0  0  0  0  0
    4.3255    1.6351   -0.6729 C   0  0  0  0  0  0  0  0  0  0  0  0
    5.1264    2.6789   -1.5038 C   0  0  2  0  0  0  0  0  0  0  0  0
    5.1092    2.2298   -2.9936 C   0  0  0  0  0  0  0  0  0  0  0  0
    5.8467    3.1283   -3.9896 C   0  0  0  0  0  0  0  0  0  0  0  0
    5.7769    2.6072   -5.4296 C   0  0  0  0  0  0  0  0  0  0  0  0
    6.5100    3.4973   -6.4343 C   0  0  0  0  0  0  0  0  0  0  0  0
    6.5519    2.8544   -0.9777 C   0  0  0  0  0  0  0  0  0  0  0  0
    7.5616    1.9078   -0.8796 C   0  0  0  0  0  0  0  0  0  0  0  0
    8.8260    2.2791   -0.3582 C   0  0  0  0  0  0  0  0  0  0  0  0
    9.8731    1.3179   -0.2515 C   0  0  0  0  0  0  0  0  0  0  0  0
   10.7699    0.4939   -0.1604 C   0  0  0  0  0  0  0  0  0  0  0  0
   11.8162   -0.4669   -0.0523 C   0  0  0  0  0  0  0  0  0  0  0  0
   13.0845   -0.1067    0.4576 C   0  0  0  0  0  0  0  0  0  0  0  0
   14.1023   -1.0470    0.5700 C   0  0  0  0  0  0  0  0  0  0  0  0
   13.9057   -2.3894    0.1809 C   0  0  0  0  0  0  0  0  0  0  0  0
   14.9662   -3.4014    0.2260 C   0  0  0  0  0  0  0  0  0  0  0  0
   15.9589   -3.6299    1.1282 C   0  0  0  0  0  0  0  0  0  0  0  0
   17.0431   -4.6169    0.8878 C   0  0  0  0  0  0  0  0  0  0  0  0
   17.2965   -5.4439   -0.2097 C   0  0  0  0  0  0  0  0  0  0  0  0
   18.4223   -6.2752   -0.1925 C   0  0  0  0  0  0  0  0  0  0  0  0
   19.2949   -6.2752    0.9052 C   0  0  0  0  0  0  0  0  0  0  0  0
   19.0531   -5.4452    2.0057 C   0  0  0  0  0  0  0  0  0  0  0  0
   17.9262   -4.6199    1.9944 C   0  0  0  0  0  0  0  0  0  0  0  0
   17.4107   -3.6725    2.9909 C   0  0  0  0  0  0  0  0  0  0  0  0
   17.8840   -3.3597    4.2666 C   0  0  0  0  0  0  0  0  0  0  0  0
   17.1607   -2.4619    5.0587 C   0  0  0  0  0  0  0  0  0  0  0  0
   15.9698   -1.8996    4.5816 C   0  0  0  0  0  0  0  0  0  0  0  0
   15.4953   -2.2026    3.2998 C   0  0  0  0  0  0  0  0  0  0  0  0
   16.2231   -3.0765    2.4826 C   0  0  0  0  0  0  0  0  0  0  0  0
   12.6497   -2.7335   -0.3655 C   0  0  0  0  0  0  0  0  0  0  0  0
   11.6220   -1.8038   -0.4675 C   0  0  0  0  0  0  0  0  0  0  0  0
    9.0364    3.6168    0.0555 C   0  0  0  0  0  0  0  0  0  0  0  0
    8.0219    4.5661   -0.0432 C   0  0  0  0  0  0  0  0  0  0  0  0
    6.7766    4.1863   -0.5605 C   0  0  0  0  0  0  0  0  0  0  0  0
    5.5493    4.9546   -0.7778 C   0  0  0  0  0  0  0  0  0  0  0  0
    5.2502    6.3013   -0.5336 C   0  0  0  0  0  0  0  0  0  0  0  0
    3.9794    6.7828   -0.8394 C   0  0  0  0  0  0  0  0  0  0  0  0
    2.9908    5.9325   -1.3911 C   0  0  0  0  0  0  0  0  0  0  0  0
    1.6943    6.4385   -1.6991 C   0  0  0  0  0  0  0  0  0  0  0  0
    0.5831    6.8712   -1.9631 C   0  0  0  0  0  0  0  0  0  0  0  0
   -0.7134    7.3759   -2.2695 C   0  0  0  0  0  0  0  0  0  0  0  0
   -1.7115    6.5350   -2.8125 C   0  0  0  0  0  0  0  0  0  0  0  0
   -2.9788    7.0268   -3.1040 C   0  0  0  0  0  0  0  0  0  0  0  0
   -3.3122    8.3779   -2.8685 C   0  0  0  0  0  0  0  0  0  0  0  0
   -4.6154    8.9543   -3.2151 C   0  0  0  0  0  0  0  0  0  0  0  0
   -5.8766    8.4508   -3.1299 C   0  0  0  0  0  0  0  0  0  0  0  0
   -7.0552    9.1495   -3.7046 C   0  0  0  0  0  0  0  0  0  0  0  0
   -7.1470   10.3493   -4.4149 C   0  0  0  0  0  0  0  0  0  0  0  0
   -8.3979   10.7757   -4.8758 C   0  0  0  0  0  0  0  0  0  0  0  0
   -9.5470   10.0075   -4.6400 C   0  0  0  0  0  0  0  0  0  0  0  0
   -9.4637    8.8011   -3.9358 C   0  0  0  0  0  0  0  0  0  0  0  0
   -8.2178    8.3768   -3.4681 C   0  0  0  0  0  0  0  0  0  0  0  0
   -7.8263    7.1888   -2.6989 C   0  0  0  0  0  0  0  0  0  0  0  0
   -8.6072    6.1585   -2.1718 C   0  0  0  0  0  0  0  0  0  0  0  0
   -7.9925    5.1647   -1.4030 C   0  0  0  0  0  0  0  0  0  0  0  0
   -6.6150    5.2152   -1.1538 C   0  0  0  0  0  0  0  0  0  0  0  0
   -5.8256    6.2409   -1.6872 C   0  0  0  0  0  0  0  0  0  0  0  0
   -6.4205    7.2271   -2.4838 C   0  0  0  0  0  0  0  0  0  0  0  0
   -2.2986    9.2221   -2.3639 C   0  0  0  0  0  0  0  0  0  0  0  0
   -1.0340    8.7356   -2.0556 C   0  0  0  0  0  0  0  0  0  0  0  0
    3.3062    4.5723   -1.6332 C   0  0  0  0  0  0  0  0  0  0  0  0
    4.5724    4.0939   -1.3282 C   0  0  0  0  0  0  0  0  0  0  0  0
    2.7177    0.2691    3.5696 H   0  0  0  0  0  0  0  0  0  0  0  0
    2.8051    2.0228    3.2844 H   0  0  0  0  0  0  0  0  0  0  0  0
    4.2948    1.0914    3.5493 H   0  0  0  0  0  0  0  0  0  0  0  0
    2.4024    0.7508    1.1270 H   0  0  0  0  0  0  0  0  0  0  0  0
    3.8798   -0.1727    1.3897 H   0  0  0  0  0  0  0  0  0  0  0  0
    5.2298    1.9517    1.2724 H   0  0  0  0  0  0  0  0  0  0  0  0
    3.7509    2.8764    1.0097 H   0  0  0  0  0  0  0  0  0  0  0  0
    3.3101    1.5679   -1.1030 H   0  0  0  0  0  0  0  0  0  0  0  0
    4.7854    0.6447   -0.8408 H   0  0  0  0  0  0  0  0  0  0  0  0
    4.0537    2.1317   -3.3049 H   0  0  0  0  0  0  0  0  0  0  0  0
    5.5296    1.2094   -3.0438 H   0  0  0  0  0  0  0  0  0  0  0  0
    6.9052    3.2248   -3.6911 H   0  0  0  0  0  0  0  0  0  0  0  0
    5.4254    4.1482   -3.9536 H   0  0  0  0  0  0  0  0  0  0  0  0
    4.7178    2.5071   -5.7303 H   0  0  0  0  0  0  0  0  0  0  0  0
    6.1964    1.5851   -5.4683 H   0  0  0  0  0  0  0  0  0  0  0  0
    6.0891    4.5166   -6.4479 H   0  0  0  0  0  0  0  0  0  0  0  0
    6.4408    3.0951   -7.4577 H   0  0  0  0  0  0  0  0  0  0  0  0
    7.5802    3.5872   -6.1834 H   0  0  0  0  0  0  0  0  0  0  0  0
    7.4030    0.8749   -1.1977 H   0  0  0  0  0  0  0  0  0  0  0  0
   13.2629    0.9288    0.7548 H   0  0  0  0  0  0  0  0  0  0  0  0
   15.0814   -0.7340    0.9358 H   0  0  0  0  0  0  0  0  0  0  0  0
   14.9469   -4.0863   -0.6300 H   0  0  0  0  0  0  0  0  0  0  0  0
   16.6321   -5.4492   -1.0777 H   0  0  0  0  0  0  0  0  0  0  0  0
   18.6247   -6.9286   -1.0449 H   0  0  0  0  0  0  0  0  0  0  0  0
   20.1716   -6.9279    0.8998 H   0  0  0  0  0  0  0  0  0  0  0  0
   19.7377   -5.4468    2.8577 H   0  0  0  0  0  0  0  0  0  0  0  0
   18.7992   -3.8190    4.6486 H   0  0  0  0  0  0  0  0  0  0  0  0
   17.5191   -2.2083    6.0597 H   0  0  0  0  0  0  0  0  0  0  0  0
   15.4001   -1.2167    5.2168 H   0  0  0  0  0  0  0  0  0  0  0  0
   14.5581   -1.7633    2.9600 H   0  0  0  0  0  0  0  0  0  0  0  0
   12.4793   -3.7596   -0.7028 H   0  0  0  0  0  0  0  0  0  0  0  0
   10.6540   -2.0988   -0.8775 H   0  0  0  0  0  0  0  0  0  0  0  0
   10.0126    3.8966    0.4562 H   0  0  0  0  0  0  0  0  0  0  0  0
    8.2036    5.5937    0.2815 H   0  0  0  0  0  0  0  0  0  0  0  0
    5.9997    6.9733   -0.1082 H   0  0  0  0  0  0  0  0  0  0  0  0
    3.7303    7.8297   -0.6552 H   0  0  0  0  0  0  0  0  0  0  0  0
   -1.4729    5.4885   -3.0134 H   0  0  0  0  0  0  0  0  0  0  0  0
   -3.7196    6.3634   -3.5530 H   0  0  0  0  0  0  0  0  0  0  0  0
   -4.5448    9.9710   -3.6197 H   0  0  0  0  0  0  0  0  0  0  0  0
   -6.2599   10.9555   -4.6159 H   0  0  0  0  0  0  0  0  0  0  0  0
   -8.4788   11.7156   -5.4277 H   0  0  0  0  0  0  0  0  0  0  0  0
  -10.5151   10.3538   -5.0109 H   0  0  0  0  0  0  0  0  0  0  0  0
  -10.3619    8.2045   -3.7569 H   0  0  0  0  0  0  0  0  0  0  0  0
   -9.6861    6.1340   -2.3444 H   0  0  0  0  0  0  0  0  0  0  0  0
   -8.5917    4.3525   -0.9835 H   0  0  0  0  0  0  0  0  0  0  0  0
   -6.1478    4.4465   -0.5330 H   0  0  0  0  0  0  0  0  0  0  0  0
   -4.7594    6.2648   -1.4644 H   0  0  0  0  0  0  0  0  0  0  0  0
   -2.5202   10.2802   -2.1997 H   0  0  0  0  0  0  0  0  0  0  0  0
   -0.2725    9.4048   -1.6501 H   0  0  0  0  0  0  0  0  0  0  0  0
    2.5410    3.9193   -2.0592 H   0  0  0  0  0  0  0  0  0  0  0  0
  1  2  1  0
  1 66  1  0
  1 67  1  0
  1 68  1  0
  2  3  1  0
  2 69  1  0
  2 70  1  0
  3  4  1  0
  3 71  1  0
  3 72  1  0
  5  4  1  1
  4 73  1  0
  4 74  1  0
  5  6  1  0
  5 10  1  0
  5 65  1  0
  6  7  1  0
  6 75  1  0
  6 76  1  0
  7  8  1  0
  7 77  1  0
  7 78  1  0
  8  9  1  0
  8 79  1  0
  8 80  1  0
  9 81  1  0
  9 82  1  0
  9 83  1  0
 10 11  2  0
 10 37  1  0
 11 12  1  0
 11 84  1  0
 12 13  1  0
 12 35  2  0
 13 14  3  0
 14 15  1  0
 15 16  2  0
 15 34  1  0
 16 17  1  0
 16 85  1  0
 17 18  2  0
 17 86  1  0
 18 19  1  0
 18 33  1  0
 19 20  2  0
 19 87  1  0
 20 21  1  0
 20 32  1  0
 21 22  2  0
 21 26  1  0
 22 23  1  0
 22 88  1  0
 23 24  2  0
 23 89  1  0
 24 25  1  0
 24 90  1  0
 25 26  2  0
 25 91  1  0
 26 27  1  0
 27 28  2  0
 27 32  1  0
 28 29  1  0
 28 92  1  0
 29 30  2  0
 29 93  1  0
 30 31  1  0
 30 94  1  0
 31 32  2  0
 31 95  1  0
 33 34  2  0
 33 96  1  0
 34 97  1  0
 35 36  1  0
 35 98  1  0
 36 37  2  0
 36 99  1  0
 37 38  1  0
 38 39  2  0
 38 65  1  0
 39 40  1  0
 39100  1  0
 40 41  2  0
 40101  1  0
 41 42  1  0
 41 64  1  0
 42 43  3  0
 43 44  1  0
 44 45  2  0
 44 63  1  0
 45 46  1  0
 45102  1  0
 46 47  2  0
 46103  1  0
 47 48  1  0
 47 62  1  0
 48 49  2  0
 48104  1  0
 49 50  1  0
 49 61  1  0
 50 51  2  0
 50 55  1  0
 51 52  1  0
 51105  1  0
 52 53  2  0
 52106  1  0
 53 54  1  0
 53107  1  0
 54 55  2  0
 54108  1  0
 55 56  1  0
 56 57  2  0
 56 61  1  0
 57 58  1  0
 57109  1  0
 58 59  2  0
 58110  1  0
 59 60  1  0
 59111  1  0
 60 61  2  0
 60112  1  0
 62 63  2  0
 62113  1  0
 63114  1  0
 64 65  2  0
 64115  1  0
M  END

