
     RDKit          3D

 34 35  0  0  0  0  0  0  0  0999 V2000
    1.0465   -1.2837   -0.4700 C   0  0  0  0  0  0  0  0  0  0  0  0
    2.4862   -1.0862   -0.4551 N   0  0  0  0  0  0  0  0  0  0  0  0
    3.0255   -0.3978   -1.6142 C   0  0  0  0  0  0  0  0  0  0  0  0
    3.1590   -1.3113    0.7273 C   0  0  0  0  0  0  0  0  0  0  0  0
    2.5680   -1.5655    1.7683 O   0  0  0  0  0  0  0  0  0  0  0  0
    4.6693   -1.2805    0.7185 C   0  0  0  0  0  0  0  0  0  0  0  0
    5.4420   -1.8902   -0.2799 C   0  0  0  0  0  0  0  0  0  0  0  0
    6.8340   -1.9060   -0.1573 C   0  0  0  0  0  0  0  0  0  0  0  0
    7.4482   -1.3207    0.9447 C   0  0  0  0  0  0  0  0  0  0  0  0
    9.2010   -1.3357    1.0635 Cl  0  0  0  0  0  0  0  0  0  0  0  0
    6.6961   -0.7178    1.9869 C   0  0  0  0  0  0  0  0  0  0  0  0
    7.3274   -0.1882    3.0887 N   0  0  0  0  0  0  0  0  0  0  0  0
    6.6460    0.5922    4.1013 C   0  0  0  0  0  0  0  0  0  0  0  0
    7.5639    0.9485    5.2333 C   0  0  0  0  0  0  0  0  0  0  0  0
    7.8159    2.1879    5.7678 C   0  0  0  0  0  0  0  0  0  0  0  0
    8.7200    2.1664    6.8740 C   0  0  0  0  0  0  0  0  0  0  0  0
    9.1467    0.8952    7.1582 C   0  0  0  0  0  0  0  0  0  0  0  0
   10.2525    0.4188    8.3944 Cl  0  0  0  0  0  0  0  0  0  0  0  0
    8.4526   -0.2921    6.0891 S   0  0  0  0  0  0  0  0  0  0  0  0
    5.2952   -0.7173    1.8375 C   0  0  0  0  0  0  0  0  0  0  0  0
    0.7484   -1.8094   -1.3930 H   0  0  0  0  0  0  0  0  0  0  0  0
    0.5054   -0.3194   -0.4354 H   0  0  0  0  0  0  0  0  0  0  0  0
    0.7560   -1.8743    0.4059 H   0  0  0  0  0  0  0  0  0  0  0  0
    2.4210    0.5018   -1.8314 H   0  0  0  0  0  0  0  0  0  0  0  0
    3.0049   -1.0371   -2.5156 H   0  0  0  0  0  0  0  0  0  0  0  0
    4.0577   -0.0765   -1.4394 H   0  0  0  0  0  0  0  0  0  0  0  0
    4.9707   -2.3732   -1.1371 H   0  0  0  0  0  0  0  0  0  0  0  0
    7.4564   -2.3790   -0.9190 H   0  0  0  0  0  0  0  0  0  0  0  0
    8.3257   -0.0365    2.9937 H   0  0  0  0  0  0  0  0  0  0  0  0
    5.7884    0.0099    4.4842 H   0  0  0  0  0  0  0  0  0  0  0  0
    6.2225    1.5352    3.6980 H   0  0  0  0  0  0  0  0  0  0  0  0
    7.3618    3.1014    5.3788 H   0  0  0  0  0  0  0  0  0  0  0  0
    9.0475    3.0452    7.4291 H   0  0  0  0  0  0  0  0  0  0  0  0
    4.6598   -0.2920    2.6137 H   0  0  0  0  0  0  0  0  0  0  0  0
  1  2  1  0
  1 21  1  0
  1 22  1  0
  1 23  1  0
  2  3  1  0
  2  4  1  0
  3 24  1  0
  3 25  1  0
  3 26  1  0
  4  5  2  0
  4  6  1  0
  6  7  2  0
  6 20  1  0
  7  8  1  0
  7 27  1  0
  8  9  2  0
  8 28  1  0
  9 10  1  0
  9 11  1  0
 11 12  1  0
 11 20  2  0
 12 13  1  0
 12 29  1  0
 13 14  1  0
 13 30  1  0
 13 31  1  0
 14 15  2  0
 14 19  1  0
 15 16  1  0
 15 32  1  0
 16 17  2  0
 16 33  1  0
 17 18  1  0
 17 19  1  0
 20 34  1  0
M  END

