
     RDKit          3D

 90 91  0  0  0  0  0  0  0  0999 V2000
    3.4728    3.6438    4.2033 C   0  0  0  0  0  0  0  0  0  0  0  0
    3.3669    2.2242    3.6732 C   0  0  0  0  0  0  0  0  0  0  0  0
    4.6156    1.7423    3.1346 O   0  0  0  0  0  0  0  0  0  0  0  0
    5.4702    1.1573    3.9871 C   0  0  0  0  0  0  0  0  0  0  0  0
    5.3051    1.0953    5.1817 O   0  0  0  0  0  0  0  0  0  0  0  0
    6.6555    0.4956    3.2923 C   0  0  0  0  0  0  0  0  0  0  0  0
    7.0199    0.9790    1.9713 N   0  0  0  0  0  0  0  0  0  0  0  0
    6.4112    0.3165    0.9251 C   0  0  0  0  0  0  0  0  0  0  0  0
    5.6608   -0.6322    1.1174 O   0  0  0  0  0  0  0  0  0  0  0  0
    6.6885    0.7538   -0.5255 C   0  0  2  0  0  0  0  0  0  0  0  0
    7.2676    1.6804   -0.5607 H   0  0  0  0  0  0  0  0  0  0  0  0
    5.3954    1.0586   -1.3206 C   0  0  0  0  0  0  0  0  0  0  0  0
    4.2795    0.0074   -1.4325 C   0  0  0  0  0  0  0  0  0  0  0  0
    4.7134   -1.3438   -1.9975 C   0  0  0  0  0  0  0  0  0  0  0  0
    3.5678   -2.1581   -2.3736 N   0  0  0  0  0  0  0  0  0  0  0  0
    3.8132   -3.3607   -3.0312 C   0  0  0  0  0  0  0  0  0  0  0  0
    2.6655   -4.1326   -3.2062 N   0  0  0  0  0  0  0  0  0  0  0  0
    5.0015   -3.6643   -3.3946 N   0  0  0  0  0  0  0  0  0  0  0  0
    5.2561   -4.8257   -4.2022 C   0  0  0  0  0  0  0  0  0  0  0  0
    6.6994   -4.8021   -4.7080 C   0  0  1  0  0  0  0  0  0  0  0  0
    7.5327   -5.0780   -3.6373 O   0  0  0  0  0  0  0  0  0  0  0  0
    8.8901   -4.7108   -3.8159 C   0  0  0  0  0  0  0  0  0  0  0  0
    9.6663   -5.1437   -2.5857 C   0  0  0  0  0  0  0  0  0  0  0  0
    6.9112   -5.7801   -5.7140 O   0  0  0  0  0  0  0  0  0  0  0  0
    6.7190   -5.3508   -7.0439 C   0  0  0  0  0  0  0  0  0  0  0  0
    7.0477   -6.5000   -7.9801 C   0  0  0  0  0  0  0  0  0  0  0  0
    7.5583   -0.2725   -1.1174 N   0  0  0  0  0  0  0  0  0  0  0  0
    8.6867    0.1007   -2.2964 S   0  0  1  0  0  0  0  0  0  0  0  0
    8.6032   -0.9536   -3.3094 O   0  0  0  0  0  0  0  0  0  0  0  0
    8.5332    1.5244   -2.6225 O   0  0  0  0  0  0  0  0  0  0  0  0
   10.2763   -0.0711   -1.4889 C   0  0  0  0  0  0  0  0  0  0  0  0
   10.8698   -1.3327   -1.3863 C   0  0  0  0  0  0  0  0  0  0  0  0
   12.0886   -1.4551   -0.7326 C   0  0  0  0  0  0  0  0  0  0  0  0
   12.8511   -3.0304   -0.6127 Cl  0  0  0  0  0  0  0  0  0  0  0  0
   12.7610   -0.3447   -0.1546 C   0  0  0  0  0  0  0  0  0  0  0  0
   13.9378   -0.4819    0.5103 N   0  0  0  0  0  0  0  0  0  0  0  0
   12.1193    0.9117   -0.3015 C   0  0  0  0  0  0  0  0  0  0  0  0
   12.9027    2.3275    0.3825 Cl  0  0  0  0  0  0  0  0  0  0  0  0
   10.9059    1.0586   -0.9624 C   0  0  0  0  0  0  0  0  0  0  0  0
    8.0827    1.9993    1.7631 C   0  0  1  0  0  0  0  0  0  0  0  0
    7.5453    3.4265    1.4972 C   0  0  0  0  0  0  0  0  0  0  0  0
    7.2073    4.2269    2.7600 C   0  0  0  0  0  0  0  0  0  0  0  0
    8.3988    4.2871    3.7213 C   0  0  0  0  0  0  0  0  0  0  0  0
    8.8576    2.8759    4.1051 C   0  0  0  0  0  0  0  0  0  0  0  0
    9.1710    2.0244    2.8625 C   0  0  0  0  0  0  0  0  0  0  0  0
    2.4852    3.9794    4.5590 H   0  0  0  0  0  0  0  0  0  0  0  0
    3.8070    4.3403    3.4190 H   0  0  0  0  0  0  0  0  0  0  0  0
    4.1745    3.6944    5.0486 H   0  0  0  0  0  0  0  0  0  0  0  0
    2.6628    2.1640    2.8309 H   0  0  0  0  0  0  0  0  0  0  0  0
    3.0389    1.5358    4.4659 H   0  0  0  0  0  0  0  0  0  0  0  0
    6.3588   -0.5603    3.1852 H   0  0  0  0  0  0  0  0  0  0  0  0
    7.5007    0.5280    3.9859 H   0  0  0  0  0  0  0  0  0  0  0  0
    5.7352    1.3452   -2.3300 H   0  0  0  0  0  0  0  0  0  0  0  0
    4.9605    1.9723   -0.8777 H   0  0  0  0  0  0  0  0  0  0  0  0
    3.5049    0.4259   -2.0991 H   0  0  0  0  0  0  0  0  0  0  0  0
    3.8120   -0.1443   -0.4466 H   0  0  0  0  0  0  0  0  0  0  0  0
    5.3324   -1.8780   -1.2523 H   0  0  0  0  0  0  0  0  0  0  0  0
    5.3379   -1.2218   -2.8948 H   0  0  0  0  0  0  0  0  0  0  0  0
    2.8546   -2.2314   -1.6523 H   0  0  0  0  0  0  0  0  0  0  0  0
    1.8080   -3.6125   -3.3649 H   0  0  0  0  0  0  0  0  0  0  0  0
    2.7648   -4.9283   -3.8256 H   0  0  0  0  0  0  0  0  0  0  0  0
    4.5879   -4.8909   -5.0894 H   0  0  0  0  0  0  0  0  0  0  0  0
    5.1357   -5.7750   -3.6418 H   0  0  0  0  0  0  0  0  0  0  0  0
    6.9178   -3.7943   -5.1243 H   0  0  0  0  0  0  0  0  0  0  0  0
    8.9609   -3.6144   -3.9577 H   0  0  0  0  0  0  0  0  0  0  0  0
    9.2998   -5.1964   -4.7217 H   0  0  0  0  0  0  0  0  0  0  0  0
    9.2415   -4.6798   -1.6812 H   0  0  0  0  0  0  0  0  0  0  0  0
   10.7249   -4.8497   -2.6649 H   0  0  0  0  0  0  0  0  0  0  0  0
    9.6163   -6.2363   -2.4576 H   0  0  0  0  0  0  0  0  0  0  0  0
    7.3642   -4.4745   -7.2636 H   0  0  0  0  0  0  0  0  0  0  0  0
    5.6727   -5.0185   -7.2085 H   0  0  0  0  0  0  0  0  0  0  0  0
    8.0910   -6.8243   -7.8426 H   0  0  0  0  0  0  0  0  0  0  0  0
    6.9104   -6.1977   -9.0304 H   0  0  0  0  0  0  0  0  0  0  0  0
    6.3947   -7.3630   -7.7762 H   0  0  0  0  0  0  0  0  0  0  0  0
    7.1578   -1.1986   -1.2584 H   0  0  0  0  0  0  0  0  0  0  0  0
   10.3921   -2.2113   -1.8197 H   0  0  0  0  0  0  0  0  0  0  0  0
   14.4223   -1.3686    0.4692 H   0  0  0  0  0  0  0  0  0  0  0  0
   14.4476    0.3479    0.7816 H   0  0  0  0  0  0  0  0  0  0  0  0
   10.4599    2.0457   -1.0838 H   0  0  0  0  0  0  0  0  0  0  0  0
    8.6091    1.6738    0.8578 H   0  0  0  0  0  0  0  0  0  0  0  0
    6.6694    3.3735    0.8321 H   0  0  0  0  0  0  0  0  0  0  0  0
    8.3285    3.9684    0.9363 H   0  0  0  0  0  0  0  0  0  0  0  0
    6.3438    3.7679    3.2682 H   0  0  0  0  0  0  0  0  0  0  0  0
    6.8895    5.2435    2.4741 H   0  0  0  0  0  0  0  0  0  0  0  0
    8.1378    4.8615    4.6254 H   0  0  0  0  0  0  0  0  0  0  0  0
    9.2327    4.8287    3.2369 H   0  0  0  0  0  0  0  0  0  0  0  0
    8.0751    2.4063    4.7242 H   0  0  0  0  0  0  0  0  0  0  0  0
    9.7575    2.9228    4.7410 H   0  0  0  0  0  0  0  0  0  0  0  0
    9.4490    0.9947    3.1403 H   0  0  0  0  0  0  0  0  0  0  0  0
   10.0695    2.4490    2.3818 H   0  0  0  0  0  0  0  0  0  0  0  0
  1  2  1  0
  1 46  1  0
  1 47  1  0
  1 48  1  0
  2  3  1  0
  2 49  1  0
  2 50  1  0
  3  4  1  0
  4  5  2  0
  4  6  1  0
  6  7  1  0
  6 51  1  0
  6 52  1  0
  7  8  1  0
  7 40  1  0
  8  9  2  0
  8 10  1  0
 10 11  1  1
 10 12  1  0
 10 27  1  0
 12 13  1  0
 12 53  1  0
 12 54  1  0
 13 14  1  0
 13 55  1  0
 13 56  1  0
 14 15  1  0
 14 57  1  0
 14 58  1  0
 15 16  1  0
 15 59  1  0
 16 17  1  0
 16 18  2  0
 17 60  1  0
 17 61  1  0
 18 19  1  0
 19 20  1  0
 19 62  1  0
 19 63  1  0
 20 21  1  0
 20 24  1  0
 20 64  1  6
 21 22  1  0
 22 23  1  0
 22 65  1  0
 22 66  1  0
 23 67  1  0
 23 68  1  0
 23 69  1  0
 24 25  1  0
 25 26  1  0
 25 70  1  0
 25 71  1  0
 26 72  1  0
 26 73  1  0
 26 74  1  0
 28 27  1  1
 27 75  1  0
 28 29  2  0
 28 30  2  0
 28 31  1  0
 31 32  2  0
 31 39  1  0
 32 33  1  0
 32 76  1  0
 33 34  1  0
 33 35  2  0
 35 36  1  0
 35 37  1  0
 36 77  1  0
 36 78  1  0
 37 38  1  0
 37 39  2  0
 39 79  1  0
 40 41  1  0
 40 45  1  0
 40 80  1  6
 41 42  1  0
 41 81  1  0
 41 82  1  0
 42 43  1  0
 42 83  1  0
 42 84  1  0
 43 44  1  0
 43 85  1  0
 43 86  1  0
 44 45  1  0
 44 87  1  0
 44 88  1  0
 45 89  1  0
 45 90  1  0
M  END

