
     RDKit          3D

 59 61  0  0  0  0  0  0  0  0999 V2000
    1.1447   -3.2132    0.6771 C   0  0  0  0  0  0  0  0  0  0  0  0
    2.4987   -3.0777    0.3420 O   0  0  0  0  0  0  0  0  0  0  0  0
    2.9062   -1.7466    0.1293 C   0  0  0  0  0  0  0  0  0  0  0  0
    4.3926   -1.7193   -0.2011 C   0  0  0  0  0  0  0  0  0  0  0  0
    4.8195   -2.6213   -1.3788 C   0  0  2  0  0  0  0  0  0  0  0  0
    6.3369   -2.5545   -1.6351 C   0  0  0  0  0  0  0  0  0  0  0  0
    6.7189   -1.3124   -2.4356 C   0  0  0  0  0  0  0  0  0  0  0  0
    6.0255   -1.2509   -3.6697 O   0  0  0  0  0  0  0  0  0  0  0  0
    4.5900   -1.2343   -3.5982 C   0  0  1  0  0  0  0  0  0  0  0  0
    4.0875    0.1539   -3.1316 C   0  0  0  0  0  0  0  0  0  0  0  0
    4.4962    1.2740   -4.0930 C   0  0  0  0  0  0  0  0  0  0  0  0
    4.0617    0.9877   -5.4567 N   0  0  0  0  0  0  0  0  0  0  0  0
    3.2807    1.9011   -6.1257 C   0  0  0  0  0  0  0  0  0  0  0  0
    2.9257    2.9496   -5.6055 O   0  0  0  0  0  0  0  0  0  0  0  0
    2.8665    1.5605   -7.5606 C   0  0  0  0  0  0  0  0  0  0  0  0
    2.0128    2.6559   -8.1983 C   0  0  0  0  0  0  0  0  0  0  0  0
    1.5970    2.3191   -9.6410 C   0  0  0  0  0  0  0  0  0  0  0  0
    0.7518    3.3951  -10.2874 C   0  0  0  0  0  0  0  0  0  0  0  0
    1.3469    4.4545  -10.9912 C   0  0  0  0  0  0  0  0  0  0  0  0
    0.5713    5.4700  -11.5574 C   0  0  0  0  0  0  0  0  0  0  0  0
   -0.8207    5.4446  -11.4292 C   0  0  0  0  0  0  0  0  0  0  0  0
   -1.4280    4.3961  -10.7317 C   0  0  0  0  0  0  0  0  0  0  0  0
   -0.6473    3.3833  -10.1675 C   0  0  0  0  0  0  0  0  0  0  0  0
    4.5406   -0.2882   -5.9738 C   0  0  0  0  0  0  0  0  0  0  0  0
    4.1306   -1.4432   -5.0533 C   0  0  0  0  0  0  0  0  0  0  0  0
    4.0869   -2.4047   -2.7236 C   0  0  0  0  0  0  0  0  0  0  0  0
    0.9356   -4.2841    0.8171 H   0  0  0  0  0  0  0  0  0  0  0  0
    0.4770   -2.8253   -0.1197 H   0  0  0  0  0  0  0  0  0  0  0  0
    0.8932   -2.6797    1.6167 H   0  0  0  0  0  0  0  0  0  0  0  0
    2.7156   -1.1328    1.0353 H   0  0  0  0  0  0  0  0  0  0  0  0
    2.3089   -1.2883   -0.6876 H   0  0  0  0  0  0  0  0  0  0  0  0
    4.9460   -2.0575    0.6923 H   0  0  0  0  0  0  0  0  0  0  0  0
    4.6833   -0.6678   -0.3573 H   0  0  0  0  0  0  0  0  0  0  0  0
    4.5704   -3.6450   -1.0581 H   0  0  0  0  0  0  0  0  0  0  0  0
    6.6478   -3.4423   -2.2121 H   0  0  0  0  0  0  0  0  0  0  0  0
    6.8977   -2.5753   -0.6849 H   0  0  0  0  0  0  0  0  0  0  0  0
    7.7891   -1.3271   -2.6949 H   0  0  0  0  0  0  0  0  0  0  0  0
    6.5484   -0.3943   -1.8384 H   0  0  0  0  0  0  0  0  0  0  0  0
    4.4665    0.3943   -2.1277 H   0  0  0  0  0  0  0  0  0  0  0  0
    2.9879    0.1207   -3.0531 H   0  0  0  0  0  0  0  0  0  0  0  0
    5.5956    1.3843   -4.0798 H   0  0  0  0  0  0  0  0  0  0  0  0
    4.0506    2.2322   -3.8005 H   0  0  0  0  0  0  0  0  0  0  0  0
    2.3163    0.6023   -7.5648 H   0  0  0  0  0  0  0  0  0  0  0  0
    3.7726    1.3845   -8.1679 H   0  0  0  0  0  0  0  0  0  0  0  0
    2.5663    3.6081   -8.1795 H   0  0  0  0  0  0  0  0  0  0  0  0
    1.1179    2.8295   -7.5800 H   0  0  0  0  0  0  0  0  0  0  0  0
    1.0407    1.3651   -9.6457 H   0  0  0  0  0  0  0  0  0  0  0  0
    2.5025    2.1503  -10.2500 H   0  0  0  0  0  0  0  0  0  0  0  0
    2.4355    4.4816  -11.1000 H   0  0  0  0  0  0  0  0  0  0  0  0
    1.0562    6.2834  -12.1038 H   0  0  0  0  0  0  0  0  0  0  0  0
   -1.4294    6.2364  -11.8732 H   0  0  0  0  0  0  0  0  0  0  0  0
   -2.5160    4.3646  -10.6286 H   0  0  0  0  0  0  0  0  0  0  0  0
   -1.1324    2.5651   -9.6265 H   0  0  0  0  0  0  0  0  0  0  0  0
    5.6429   -0.2649   -6.0417 H   0  0  0  0  0  0  0  0  0  0  0  0
    4.1535   -0.4602   -6.9842 H   0  0  0  0  0  0  0  0  0  0  0  0
    4.5711   -2.3813   -5.4270 H   0  0  0  0  0  0  0  0  0  0  0  0
    3.0333   -1.5559   -5.0664 H   0  0  0  0  0  0  0  0  0  0  0  0
    4.2312   -3.3249   -3.3150 H   0  0  0  0  0  0  0  0  0  0  0  0
    3.0000   -2.3117   -2.5720 H   0  0  0  0  0  0  0  0  0  0  0  0
  1  2  1  0
  1 27  1  0
  1 28  1  0
  1 29  1  0
  2  3  1  0
  3  4  1  0
  3 30  1  0
  3 31  1  0
  4  5  1  0
  4 32  1  0
  4 33  1  0
  5  6  1  0
  5 26  1  0
  5 34  1  1
  6  7  1  0
  6 35  1  0
  6 36  1  0
  7  8  1  0
  7 37  1  0
  7 38  1  0
  9  8  1  6
  9 10  1  0
  9 25  1  0
  9 26  1  0
 10 11  1  0
 10 39  1  0
 10 40  1  0
 11 12  1  0
 11 41  1  0
 11 42  1  0
 12 13  1  0
 12 24  1  0
 13 14  2  0
 13 15  1  0
 15 16  1  0
 15 43  1  0
 15 44  1  0
 16 17  1  0
 16 45  1  0
 16 46  1  0
 17 18  1  0
 17 47  1  0
 17 48  1  0
 18 19  2  0
 18 23  1  0
 19 20  1  0
 19 49  1  0
 20 21  2  0
 20 50  1  0
 21 22  1  0
 21 51  1  0
 22 23  2  0
 22 52  1  0
 23 53  1  0
 24 25  1  0
 24 54  1  0
 24 55  1  0
 25 56  1  0
 25 57  1  0
 26 58  1  0
 26 59  1  0
M  END

