
     RDKit          3D

 35 36  0  0  0  0  0  0  0  0999 V2000
    0.5102    1.1295    2.3185 C   0  0  0  0  0  0  0  0  0  0  0  0
    1.7513    0.5040    2.0769 O   0  0  0  0  0  0  0  0  0  0  0  0
    2.8765    1.2451    1.9652 C   0  0  0  0  0  0  0  0  0  0  0  0
    2.8792    2.6467    2.0226 C   0  0  0  0  0  0  0  0  0  0  0  0
    4.0681    3.3700    1.8895 C   0  0  0  0  0  0  0  0  0  0  0  0
    5.2640    2.6842    1.7021 C   0  0  0  0  0  0  0  0  0  0  0  0
    6.9027    3.6458    1.5203 Br  0  0  0  0  0  0  0  0  0  0  0  0
    5.2714    1.2874    1.6535 C   0  0  0  0  0  0  0  0  0  0  0  0
    4.0927    0.5409    1.7771 C   0  0  0  0  0  0  0  0  0  0  0  0
    4.2171   -0.9698    1.7301 C   0  0  1  0  0  0  0  0  0  0  0  0
    3.8182   -1.6732    3.3865 Cl  0  0  0  0  0  0  0  0  0  0  0  0
    3.5342   -1.7840    0.5860 C   0  0  1  0  0  0  0  0  0  0  0  0
    3.6790   -0.9798   -0.7216 C   0  0  0  0  0  0  0  0  0  0  0  0
    4.2749   -3.1501    0.4370 C   0  0  0  0  0  0  0  0  0  0  0  0
    3.2247   -4.1225   -0.1061 C   0  0  0  0  0  0  0  0  0  0  0  0
    1.9757   -3.7371    0.6971 C   0  0  0  0  0  0  0  0  0  0  0  0
    2.0379   -2.1978    0.8153 C   0  0  0  0  0  0  0  0  0  0  0  0
   -0.2334    0.3245    2.3864 H   0  0  0  0  0  0  0  0  0  0  0  0
    0.2263    1.8108    1.4967 H   0  0  0  0  0  0  0  0  0  0  0  0
    0.5158    1.6943    3.2675 H   0  0  0  0  0  0  0  0  0  0  0  0
    1.9486    3.1940    2.1700 H   0  0  0  0  0  0  0  0  0  0  0  0
    4.0532    4.4601    1.9342 H   0  0  0  0  0  0  0  0  0  0  0  0
    6.2199    0.7632    1.5207 H   0  0  0  0  0  0  0  0  0  0  0  0
    5.2918   -1.1739    1.6404 H   0  0  0  0  0  0  0  0  0  0  0  0
    4.7224   -0.6711   -0.8986 H   0  0  0  0  0  0  0  0  0  0  0  0
    3.0566   -0.0725   -0.7095 H   0  0  0  0  0  0  0  0  0  0  0  0
    3.3618   -1.5914   -1.5807 H   0  0  0  0  0  0  0  0  0  0  0  0
    4.6027   -3.4967    1.4308 H   0  0  0  0  0  0  0  0  0  0  0  0
    5.1732   -3.0635   -0.1966 H   0  0  0  0  0  0  0  0  0  0  0  0
    3.5136   -5.1789    0.0134 H   0  0  0  0  0  0  0  0  0  0  0  0
    3.0592   -3.9538   -1.1848 H   0  0  0  0  0  0  0  0  0  0  0  0
    2.0402   -4.1875    1.7020 H   0  0  0  0  0  0  0  0  0  0  0  0
    1.0373   -4.0934    0.2433 H   0  0  0  0  0  0  0  0  0  0  0  0
    1.6736   -1.8553    1.7888 H   0  0  0  0  0  0  0  0  0  0  0  0
    1.4043   -1.7185    0.0523 H   0  0  0  0  0  0  0  0  0  0  0  0
  1  2  1  0
  1 18  1  0
  1 19  1  0
  1 20  1  0
  2  3  1  0
  3  4  2  0
  3  9  1  0
  4  5  1  0
  4 21  1  0
  5  6  2  0
  5 22  1  0
  6  7  1  0
  6  8  1  0
  8  9  2  0
  8 23  1  0
  9 10  1  0
 10 11  1  0
 10 12  1  0
 10 24  1  6
 12 13  1  6
 12 14  1  0
 12 17  1  0
 13 25  1  0
 13 26  1  0
 13 27  1  0
 14 15  1  0
 14 28  1  0
 14 29  1  0
 15 16  1  0
 15 30  1  0
 15 31  1  0
 16 17  1  0
 16 32  1  0
 16 33  1  0
 17 34  1  0
 17 35  1  0
M  END

