
     RDKit          3D

 54 56  0  0  0  0  0  0  0  0999 V2000
    1.4547    1.3138   -0.5609 O   0  0  0  0  0  0  0  0  0  0  0  0
    2.3148    0.5300   -0.1835 C   0  0  0  0  0  0  0  0  0  0  0  0
    3.0084    0.6963    1.1662 C   0  0  0  0  0  0  0  0  0  0  0  0
    2.0116    1.1281    2.2478 C   0  0  0  0  0  0  0  0  0  0  0  0
    2.6474    1.4966    3.5026 N   0  0  0  0  0  0  0  0  0  0  0  0
    3.1389    0.5507    4.3574 C   0  0  0  0  0  0  0  0  0  0  0  0
    3.0990   -0.6435    4.0887 O   0  0  0  0  0  0  0  0  0  0  0  0
    3.7212    1.0532    5.6537 C   0  0  0  0  0  0  0  0  0  0  0  0
    4.1458    2.3981    5.8565 C   0  0  0  0  0  0  0  0  0  0  0  0
    4.6721    2.7958    7.0659 C   0  0  0  0  0  0  0  0  0  0  0  0
    4.8070    1.8778    8.1449 C   0  0  0  0  0  0  0  0  0  0  0  0
    5.3402    2.2552    9.4086 C   0  0  0  0  0  0  0  0  0  0  0  0
    5.4607    1.3324   10.4268 C   0  0  0  0  0  0  0  0  0  0  0  0
    5.0547   -0.0127   10.2285 C   0  0  0  0  0  0  0  0  0  0  0  0
    4.5346   -0.4103    9.0151 C   0  0  0  0  0  0  0  0  0  0  0  0
    4.3952    0.5170    7.9431 C   0  0  0  0  0  0  0  0  0  0  0  0
    3.8646    0.1386    6.6825 C   0  0  0  0  0  0  0  0  0  0  0  0
    2.7368   -0.5317   -0.9283 N   0  0  0  0  0  0  0  0  0  0  0  0
    2.2198   -0.8409   -2.2600 C   0  0  1  0  0  0  0  0  0  0  0  0
    3.3565   -0.7080   -3.2893 C   0  0  0  0  0  0  0  0  0  0  0  0
    2.9875   -0.8001   -4.7817 C   0  0  0  0  0  0  0  0  0  0  0  0
    1.7272   -0.0192   -5.2185 C   0  0  0  0  0  0  0  0  0  0  0  0
    0.4388   -0.8460   -5.3724 C   0  0  0  0  0  0  0  0  0  0  0  0
   -0.1682   -1.5239   -4.1317 C   0  0  0  0  0  0  0  0  0  0  0  0
    0.6944   -2.6204   -3.4666 C   0  0  0  0  0  0  0  0  0  0  0  0
    1.4851   -2.1926   -2.2161 C   0  0  0  0  0  0  0  0  0  0  0  0
    3.7748    1.4826    1.0474 H   0  0  0  0  0  0  0  0  0  0  0  0
    3.5233   -0.2233    1.4816 H   0  0  0  0  0  0  0  0  0  0  0  0
    1.3023    0.3045    2.4327 H   0  0  0  0  0  0  0  0  0  0  0  0
    1.4370    1.9873    1.8762 H   0  0  0  0  0  0  0  0  0  0  0  0
    2.5676    2.4535    3.8189 H   0  0  0  0  0  0  0  0  0  0  0  0
    4.0889    3.1226    5.0403 H   0  0  0  0  0  0  0  0  0  0  0  0
    5.0040    3.8281    7.2068 H   0  0  0  0  0  0  0  0  0  0  0  0
    5.6540    3.2916    9.5610 H   0  0  0  0  0  0  0  0  0  0  0  0
    5.8714    1.6349   11.3935 H   0  0  0  0  0  0  0  0  0  0  0  0
    5.1568   -0.7333   11.0438 H   0  0  0  0  0  0  0  0  0  0  0  0
    4.2209   -1.4457    8.8576 H   0  0  0  0  0  0  0  0  0  0  0  0
    3.5573   -0.8942    6.5035 H   0  0  0  0  0  0  0  0  0  0  0  0
    3.4358   -1.1498   -0.5318 H   0  0  0  0  0  0  0  0  0  0  0  0
    1.4824   -0.0481   -2.4483 H   0  0  0  0  0  0  0  0  0  0  0  0
    4.1397   -1.4561   -3.0633 H   0  0  0  0  0  0  0  0  0  0  0  0
    3.8194    0.2772   -3.1077 H   0  0  0  0  0  0  0  0  0  0  0  0
    2.8906   -1.8528   -5.0930 H   0  0  0  0  0  0  0  0  0  0  0  0
    3.8566   -0.4186   -5.3432 H   0  0  0  0  0  0  0  0  0  0  0  0
    1.9258    0.4406   -6.2012 H   0  0  0  0  0  0  0  0  0  0  0  0
    1.5529    0.8303   -4.5339 H   0  0  0  0  0  0  0  0  0  0  0  0
    0.6231   -1.6279   -6.1337 H   0  0  0  0  0  0  0  0  0  0  0  0
   -0.3334   -0.1880   -5.8083 H   0  0  0  0  0  0  0  0  0  0  0  0
   -1.1201   -1.9778   -4.4546 H   0  0  0  0  0  0  0  0  0  0  0  0
   -0.4526   -0.7616   -3.3842 H   0  0  0  0  0  0  0  0  0  0  0  0
    1.3675   -3.0619   -4.2193 H   0  0  0  0  0  0  0  0  0  0  0  0
    0.0387   -3.4497   -3.1532 H   0  0  0  0  0  0  0  0  0  0  0  0
    2.2065   -2.9893   -1.9540 H   0  0  0  0  0  0  0  0  0  0  0  0
    0.7829   -2.1308   -1.3672 H   0  0  0  0  0  0  0  0  0  0  0  0
  1  2  2  0
  2  3  1  0
  2 18  1  0
  3  4  1  0
  3 27  1  0
  3 28  1  0
  4  5  1  0
  4 29  1  0
  4 30  1  0
  5  6  1  0
  5 31  1  0
  6  7  2  0
  6  8  1  0
  8  9  2  0
  8 17  1  0
  9 10  1  0
  9 32  1  0
 10 11  2  0
 10 33  1  0
 11 12  1  0
 11 16  1  0
 12 13  2  0
 12 34  1  0
 13 14  1  0
 13 35  1  0
 14 15  2  0
 14 36  1  0
 15 16  1  0
 15 37  1  0
 16 17  2  0
 17 38  1  0
 18 19  1  0
 18 39  1  0
 19 20  1  0
 19 26  1  0
 19 40  1  6
 20 21  1  0
 20 41  1  0
 20 42  1  0
 21 22  1  0
 21 43  1  0
 21 44  1  0
 22 23  1  0
 22 45  1  0
 22 46  1  0
 23 24  1  0
 23 47  1  0
 23 48  1  0
 24 25  1  0
 24 49  1  0
 24 50  1  0
 25 26  1  0
 25 51  1  0
 25 52  1  0
 26 53  1  0
 26 54  1  0
M  END

