
     RDKit          3D

 35 36  0  0  0  0  0  0  0  0999 V2000
    3.9574    2.9689    2.0746 N   0  0  0  0  0  0  0  0  0  0  0  0
    4.3093    1.5697    2.2163 C   0  0  1  0  0  0  0  0  0  0  0  0
    3.7284    0.7956    3.4163 C   0  0  0  0  0  0  0  0  0  0  0  0
    3.9358   -0.5999    3.0387 N   0  0  0  0  0  0  0  0  0  0  0  0
    3.7845   -0.7424    1.5696 C   0  0  2  0  0  0  0  0  0  0  0  0
    4.9415   -1.6413    1.0479 C   0  0  1  0  0  0  0  0  0  0  0  0
    6.1390   -1.1813    1.5998 O   0  0  0  0  0  0  0  0  0  0  0  0
    4.7701   -3.0623    1.3248 N   0  0  0  0  0  0  0  0  0  0  0  0
    3.7458   -3.7694    0.5854 C   0  0  0  0  0  0  0  0  0  0  0  0
    3.9068   -5.2768    0.6792 C   0  0  0  0  0  0  0  0  0  0  0  0
    5.1326   -5.8786    0.9941 C   0  0  0  0  0  0  0  0  0  0  0  0
    5.2545   -7.2693    1.0551 C   0  0  0  0  0  0  0  0  0  0  0  0
    4.1529   -8.0892    0.8016 C   0  0  0  0  0  0  0  0  0  0  0  0
    2.9230   -7.5061    0.4849 C   0  0  0  0  0  0  0  0  0  0  0  0
    1.5211   -8.4896    0.1640 Cl  0  0  0  0  0  0  0  0  0  0  0  0
    2.8134   -6.1129    0.4248 C   0  0  0  0  0  0  0  0  0  0  0  0
    1.6305   -5.5608    0.1151 F   0  0  0  0  0  0  0  0  0  0  0  0
    3.8325    0.7067    1.0338 C   0  0  0  0  0  0  0  0  0  0  0  0
    4.3510    3.5259    2.8326 H   0  0  0  0  0  0  0  0  0  0  0  0
    2.9444    3.0953    2.1089 H   0  0  0  0  0  0  0  0  0  0  0  0
    5.4088    1.5027    2.2688 H   0  0  0  0  0  0  0  0  0  0  0  0
    2.6555    1.0668    3.5312 H   0  0  0  0  0  0  0  0  0  0  0  0
    4.2343    1.0338    4.3679 H   0  0  0  0  0  0  0  0  0  0  0  0
    3.3612   -1.2495    3.5684 H   0  0  0  0  0  0  0  0  0  0  0  0
    2.8221   -1.2148    1.3009 H   0  0  0  0  0  0  0  0  0  0  0  0
    5.0015   -1.5382   -0.0509 H   0  0  0  0  0  0  0  0  0  0  0  0
    5.8900   -0.9441    2.5152 H   0  0  0  0  0  0  0  0  0  0  0  0
    4.6989   -3.2294    2.3287 H   0  0  0  0  0  0  0  0  0  0  0  0
    3.8339   -3.4737   -0.4776 H   0  0  0  0  0  0  0  0  0  0  0  0
    2.7034   -3.5122    0.8684 H   0  0  0  0  0  0  0  0  0  0  0  0
    5.9832   -5.2239    1.1912 H   0  0  0  0  0  0  0  0  0  0  0  0
    6.2176   -7.7226    1.3013 H   0  0  0  0  0  0  0  0  0  0  0  0
    4.2295   -9.1768    0.8454 H   0  0  0  0  0  0  0  0  0  0  0  0
    2.8230    1.0390    0.7378 H   0  0  0  0  0  0  0  0  0  0  0  0
    4.4834    0.8171    0.1548 H   0  0  0  0  0  0  0  0  0  0  0  0
  1  2  1  0
  1 19  1  0
  1 20  1  0
  2  3  1  0
  2 18  1  0
  2 21  1  1
  3  4  1  0
  3 22  1  0
  3 23  1  0
  4  5  1  0
  4 24  1  0
  5  6  1  0
  5 18  1  0
  5 25  1  1
  6  7  1  0
  6  8  1  0
  6 26  1  6
  7 27  1  0
  8  9  1  0
  8 28  1  0
  9 10  1  0
  9 29  1  0
  9 30  1  0
 10 11  2  0
 10 16  1  0
 11 12  1  0
 11 31  1  0
 12 13  2  0
 12 32  1  0
 13 14  1  0
 13 33  1  0
 14 15  1  0
 14 16  2  0
 16 17  1  0
 18 34  1  0
 18 35  1  0
M  END

