
     RDKit          3D

 32 33  0  0  0  0  0  0  0  0999 V2000
    1.3658   -0.7213    0.8395 C   0  0  0  0  0  0  0  0  0  0  0  0
    2.6347   -0.0389    0.6686 N   0  0  0  0  0  0  0  0  0  0  0  0
    2.6643    0.9913   -0.3479 C   0  0  1  0  0  0  0  0  0  0  0  0
    1.8761    2.1358    0.1327 N   0  0  0  0  0  0  0  0  0  0  0  0
    1.2455    3.0698   -0.6496 C   0  0  0  0  0  0  0  0  0  0  0  0
    1.1380    4.6657   -0.2074 S   0  0  0  0  0  0  0  0  0  0  0  0
    0.6474    2.5258   -1.7803 N   0  0  0  0  0  0  0  0  0  0  0  0
    0.2378    3.2129   -2.9352 C   0  0  0  0  0  0  0  0  0  0  0  0
   -1.0005    2.8993   -3.5257 C   0  0  0  0  0  0  0  0  0  0  0  0
   -1.3544    3.5503   -4.7056 C   0  0  0  0  0  0  0  0  0  0  0  0
   -0.4824    4.4999   -5.2447 C   0  0  0  0  0  0  0  0  0  0  0  0
    0.7220    4.7349   -4.5742 C   0  0  0  0  0  0  0  0  0  0  0  0
    1.0834    4.0983   -3.4612 N   0  0  0  0  0  0  0  0  0  0  0  0
    4.1039    1.3801   -0.6420 C   0  0  1  0  0  0  0  0  0  0  0  0
    4.8664    0.6853   -1.7476 C   0  0  0  0  0  0  0  0  0  0  0  0
    4.4482    2.1256   -1.9008 C   0  0  0  0  0  0  0  0  0  0  0  0
    1.4555   -1.4863    1.6258 H   0  0  0  0  0  0  0  0  0  0  0  0
    0.9872   -1.2207   -0.0814 H   0  0  0  0  0  0  0  0  0  0  0  0
    0.5981   -0.0016    1.1642 H   0  0  0  0  0  0  0  0  0  0  0  0
    3.3915   -0.6982    0.5029 H   0  0  0  0  0  0  0  0  0  0  0  0
    2.1995    0.6646   -1.3022 H   0  0  0  0  0  0  0  0  0  0  0  0
    2.2281    2.5365    0.9987 H   0  0  0  0  0  0  0  0  0  0  0  0
    0.2965    1.5789   -1.6825 H   0  0  0  0  0  0  0  0  0  0  0  0
   -1.6713    2.1760   -3.0560 H   0  0  0  0  0  0  0  0  0  0  0  0
   -2.3096    3.3296   -5.1890 H   0  0  0  0  0  0  0  0  0  0  0  0
   -0.7242    5.0424   -6.1609 H   0  0  0  0  0  0  0  0  0  0  0  0
    1.4392    5.4653   -4.9675 H   0  0  0  0  0  0  0  0  0  0  0  0
    4.6666    1.6411    0.2618 H   0  0  0  0  0  0  0  0  0  0  0  0
    4.3349   -0.0662   -2.3410 H   0  0  0  0  0  0  0  0  0  0  0  0
    5.9236    0.4572   -1.5855 H   0  0  0  0  0  0  0  0  0  0  0  0
    3.6386    2.3685   -2.5952 H   0  0  0  0  0  0  0  0  0  0  0  0
    5.2169    2.9000   -1.8344 H   0  0  0  0  0  0  0  0  0  0  0  0
  1  2  1  0
  1 17  1  0
  1 18  1  0
  1 19  1  0
  2  3  1  0
  2 20  1  0
  3  4  1  0
  3 14  1  0
  3 21  1  6
  4  5  1  0
  4 22  1  0
  5  6  2  0
  5  7  1  0
  7  8  1  0
  7 23  1  0
  8  9  2  0
  8 13  1  0
  9 10  1  0
  9 24  1  0
 10 11  2  0
 10 25  1  0
 11 12  1  0
 11 26  1  0
 12 13  2  0
 12 27  1  0
 14 15  1  0
 14 16  1  0
 14 28  1  1
 15 16  1  0
 15 29  1  0
 15 30  1  0
 16 31  1  0
 16 32  1  0
M  END

