
     RDKit          3D

 60 64  0  0  0  0  0  0  0  0999 V2000
    1.1090   -0.2025    0.9277 C   0  0  0  0  0  0  0  0  0  0  0  0
    2.4569   -0.1094   -0.3679 Si  0  0  1  0  0  4  0  0  0  0  0  0
    1.7693   -0.0993   -2.1080 C   0  0  0  0  0  0  0  0  0  0  0  0
    3.3601    1.2665   -0.1290 O   0  0  0  0  0  0  0  0  0  0  0  0
    4.8465    1.8719    0.3337 Si  0  0  2  0  0  4  0  0  0  0  0  0
    4.5133    3.5538    1.1069 C   0  0  0  0  0  0  0  0  0  0  0  0
    5.9199    2.0976   -1.1992 C   0  0  0  0  0  0  0  0  0  0  0  0
    5.7038    0.7197    1.5961 C   0  0  0  0  0  0  0  0  0  0  0  0
    6.3622    1.3853    2.6118 C   0  0  0  0  0  0  0  0  0  0  0  0
    7.1021    0.7265    3.6461 C   0  0  0  0  0  0  0  0  0  0  0  0
    7.7196    1.4766    4.5656 N   0  0  0  0  0  0  0  0  0  0  0  0
    8.4107    0.8631    5.5352 C   0  0  0  0  0  0  0  0  0  0  0  0
    9.0693    1.6754    6.5153 C   0  0  0  0  0  0  0  0  0  0  0  0
    9.7804    1.1059    7.5404 C   0  0  0  0  0  0  0  0  0  0  0  0
    9.8727   -0.3131    7.6522 C   0  0  0  0  0  0  0  0  0  0  0  0
    9.2596   -1.1290    6.7333 C   0  0  0  0  0  0  0  0  0  0  0  0
    8.5154   -0.5786    5.6393 C   0  0  0  0  0  0  0  0  0  0  0  0
    7.8627   -1.3695    4.6635 C   0  0  0  0  0  0  0  0  0  0  0  0
    7.9367   -2.8619    4.7138 C   0  0  0  0  0  0  0  0  0  0  0  0
    6.8337   -3.6229    5.1387 C   0  0  0  0  0  0  0  0  0  0  0  0
    6.8964   -5.0173    5.1903 C   0  0  0  0  0  0  0  0  0  0  0  0
    8.0755   -5.6531    4.8081 C   0  0  0  0  0  0  0  0  0  0  0  0
    8.1422   -6.9908    4.8534 F   0  0  0  0  0  0  0  0  0  0  0  0
    9.1872   -4.9307    4.3803 C   0  0  0  0  0  0  0  0  0  0  0  0
    9.1112   -3.5367    4.3377 C   0  0  0  0  0  0  0  0  0  0  0  0
    7.1419   -0.7122    3.6406 C   0  0  0  0  0  0  0  0  0  0  0  0
    6.4553   -1.3905    2.5823 C   0  0  0  0  0  0  0  0  0  0  0  0
    5.7588   -0.7416    1.5773 C   0  0  0  0  0  0  0  0  0  0  0  0
    5.0089   -1.9071    0.2621 Si  0  0  2  0  0  4  0  0  0  0  0  0
    4.8056   -3.6439    0.9587 C   0  0  0  0  0  0  0  0  0  0  0  0
    6.1103   -1.9829   -1.2657 C   0  0  0  0  0  0  0  0  0  0  0  0
    3.4825   -1.4082   -0.1956 O   0  0  0  0  0  0  0  0  0  0  0  0
    0.4277    0.6608    0.8531 H   0  0  0  0  0  0  0  0  0  0  0  0
    1.5426   -0.2057    1.9409 H   0  0  0  0  0  0  0  0  0  0  0  0
    0.5098   -1.1205    0.8115 H   0  0  0  0  0  0  0  0  0  0  0  0
    1.1081    0.7683   -2.2665 H   0  0  0  0  0  0  0  0  0  0  0  0
    1.1863   -1.0131   -2.3082 H   0  0  0  0  0  0  0  0  0  0  0  0
    2.5829   -0.0462   -2.8491 H   0  0  0  0  0  0  0  0  0  0  0  0
    3.9008    4.1451    0.4064 H   0  0  0  0  0  0  0  0  0  0  0  0
    5.4346    4.1235    1.3067 H   0  0  0  0  0  0  0  0  0  0  0  0
    3.9518    3.4634    2.0503 H   0  0  0  0  0  0  0  0  0  0  0  0
    5.4291    2.7873   -1.9060 H   0  0  0  0  0  0  0  0  0  0  0  0
    6.1015    1.1495   -1.7278 H   0  0  0  0  0  0  0  0  0  0  0  0
    6.9003    2.5248   -0.9311 H   0  0  0  0  0  0  0  0  0  0  0  0
    6.3571    2.4748    2.6854 H   0  0  0  0  0  0  0  0  0  0  0  0
    8.9733    2.7572    6.4047 H   0  0  0  0  0  0  0  0  0  0  0  0
   10.2769    1.7372    8.2819 H   0  0  0  0  0  0  0  0  0  0  0  0
   10.4344   -0.7519    8.4807 H   0  0  0  0  0  0  0  0  0  0  0  0
    9.3306   -2.2133    6.8315 H   0  0  0  0  0  0  0  0  0  0  0  0
    5.9137   -3.1155    5.4382 H   0  0  0  0  0  0  0  0  0  0  0  0
    6.0467   -5.6166    5.5229 H   0  0  0  0  0  0  0  0  0  0  0  0
   10.0933   -5.4640    4.0863 H   0  0  0  0  0  0  0  0  0  0  0  0
    9.9777   -2.9618    4.0023 H   0  0  0  0  0  0  0  0  0  0  0  0
    6.5038   -2.4804    2.5908 H   0  0  0  0  0  0  0  0  0  0  0  0
    5.7664   -4.1504    1.1425 H   0  0  0  0  0  0  0  0  0  0  0  0
    4.2461   -4.2483    0.2259 H   0  0  0  0  0  0  0  0  0  0  0  0
    4.2311   -3.6414    1.8986 H   0  0  0  0  0  0  0  0  0  0  0  0
    7.1168   -2.3501   -1.0049 H   0  0  0  0  0  0  0  0  0  0  0  0
    6.2281   -0.9997   -1.7460 H   0  0  0  0  0  0  0  0  0  0  0  0
    5.6784   -2.6716   -2.0109 H   0  0  0  0  0  0  0  0  0  0  0  0
  2  1  1  1
  1 33  1  0
  1 34  1  0
  1 35  1  0
  2  3  1  0
  2  4  1  0
  2 32  1  0
  3 36  1  0
  3 37  1  0
  3 38  1  0
  4  5  1  0
  5  6  1  1
  5  7  1  0
  5  8  1  0
  6 39  1  0
  6 40  1  0
  6 41  1  0
  7 42  1  0
  7 43  1  0
  7 44  1  0
  8  9  2  0
  8 28  1  0
  9 10  1  0
  9 45  1  0
 10 11  2  0
 10 26  1  0
 11 12  1  0
 12 13  2  0
 12 17  1  0
 13 14  1  0
 13 46  1  0
 14 15  2  0
 14 47  1  0
 15 16  1  0
 15 48  1  0
 16 17  2  0
 16 49  1  0
 17 18  1  0
 18 19  1  0
 18 26  2  0
 19 20  2  0
 19 25  1  0
 20 21  1  0
 20 50  1  0
 21 22  2  0
 21 51  1  0
 22 23  1  0
 22 24  1  0
 24 25  2  0
 24 52  1  0
 25 53  1  0
 26 27  1  0
 27 28  2  0
 27 54  1  0
 28 29  1  0
 29 30  1  1
 29 31  1  0
 29 32  1  0
 30 55  1  0
 30 56  1  0
 30 57  1  0
 31 58  1  0
 31 59  1  0
 31 60  1  0
M  END

