
     RDKit          3D

 38 40  0  0  0  0  0  0  0  0999 V2000
    1.1816   -0.2597   -0.6948 C   0  0  0  0  0  0  0  0  0  0  0  0
    2.3856   -0.1577    0.0168 O   0  0  0  0  0  0  0  0  0  0  0  0
    2.9186    1.1526    0.1498 C   0  0  1  0  0  0  0  0  0  0  0  0
    2.1554    1.9915    1.1888 C   0  0  0  0  0  0  0  0  0  0  0  0
    2.2861    1.4075    2.6001 C   0  0  0  0  0  0  0  0  0  0  0  0
    3.7587    1.2366    3.0466 C   0  0  1  0  0  0  0  0  0  0  0  0
    4.5182    0.4115    1.9776 C   0  0  0  0  0  0  0  0  0  0  0  0
    4.3829    0.9972    0.5670 C   0  0  0  0  0  0  0  0  0  0  0  0
    4.4568    2.5876    3.3762 C   0  0  0  0  0  0  0  0  0  0  0  0
    4.8516    2.4840    4.8278 C   0  0  0  0  0  0  0  0  0  0  0  0
    5.5176    3.4213    5.6111 C   0  0  0  0  0  0  0  0  0  0  0  0
    5.8914    4.5951    5.0720 F   0  0  0  0  0  0  0  0  0  0  0  0
    5.7976    3.1498    6.9466 C   0  0  0  0  0  0  0  0  0  0  0  0
    5.4062    1.9245    7.5076 C   0  0  0  0  0  0  0  0  0  0  0  0
    4.7330    0.9493    6.7594 C   0  0  0  0  0  0  0  0  0  0  0  0
    4.3146   -0.3643    7.3646 C   0  0  0  0  0  0  0  0  0  0  0  0
    4.4707    1.2677    5.4090 C   0  0  0  0  0  0  0  0  0  0  0  0
    3.7825    0.4484    4.3806 C   0  0  0  0  0  0  0  0  0  0  0  0
    3.3075   -0.6585    4.5293 O   0  0  0  0  0  0  0  0  0  0  0  0
    0.9455   -1.3295   -0.7951 H   0  0  0  0  0  0  0  0  0  0  0  0
    1.2648    0.1779   -1.7109 H   0  0  0  0  0  0  0  0  0  0  0  0
    0.3308    0.2312   -0.1831 H   0  0  0  0  0  0  0  0  0  0  0  0
    2.8703    1.6623   -0.8351 H   0  0  0  0  0  0  0  0  0  0  0  0
    1.0909    2.0701    0.9127 H   0  0  0  0  0  0  0  0  0  0  0  0
    2.5504    3.0223    1.1550 H   0  0  0  0  0  0  0  0  0  0  0  0
    1.8137    0.4133    2.6292 H   0  0  0  0  0  0  0  0  0  0  0  0
    1.7471    2.0405    3.3258 H   0  0  0  0  0  0  0  0  0  0  0  0
    4.1059   -0.6090    1.9851 H   0  0  0  0  0  0  0  0  0  0  0  0
    5.5832    0.3321    2.2554 H   0  0  0  0  0  0  0  0  0  0  0  0
    4.8920    0.3449   -0.1604 H   0  0  0  0  0  0  0  0  0  0  0  0
    4.8701    1.9860    0.5081 H   0  0  0  0  0  0  0  0  0  0  0  0
    3.7928    3.4543    3.2192 H   0  0  0  0  0  0  0  0  0  0  0  0
    5.3436    2.7703    2.7467 H   0  0  0  0  0  0  0  0  0  0  0  0
    6.3217    3.9010    7.5416 H   0  0  0  0  0  0  0  0  0  0  0  0
    5.6350    1.7294    8.5587 H   0  0  0  0  0  0  0  0  0  0  0  0
    4.6066   -0.4220    8.4234 H   0  0  0  0  0  0  0  0  0  0  0  0
    4.7646   -1.2129    6.8258 H   0  0  0  0  0  0  0  0  0  0  0  0
    3.2259   -0.5102    7.2875 H   0  0  0  0  0  0  0  0  0  0  0  0
  1  2  1  0
  1 20  1  0
  1 21  1  0
  1 22  1  0
  2  3  1  0
  3  4  1  0
  3  8  1  0
  3 23  1  6
  4  5  1  0
  4 24  1  0
  4 25  1  0
  5  6  1  0
  5 26  1  0
  5 27  1  0
  6  7  1  0
  6  9  1  0
  6 18  1  1
  7  8  1  0
  7 28  1  0
  7 29  1  0
  8 30  1  0
  8 31  1  0
  9 10  1  0
  9 32  1  0
  9 33  1  0
 10 11  1  0
 10 17  2  0
 11 12  1  0
 11 13  2  0
 13 14  1  0
 13 34  1  0
 14 15  2  0
 14 35  1  0
 15 16  1  0
 15 17  1  0
 16 36  1  0
 16 37  1  0
 16 38  1  0
 17 18  1  0
 18 19  2  0
M  END

