
     RDKit          3D

 41 42  0  0  0  0  0  0  0  0999 V2000
    2.3652   -2.1077    3.4182 C   0  0  0  0  0  0  0  0  0  0  0  0
    1.8010   -0.8357    2.7659 C   0  0  1  0  0  0  0  0  0  0  0  0
    2.9132    0.2203    2.6224 C   0  0  0  0  0  0  0  0  0  0  0  0
    4.0877   -0.1088    2.4978 O   0  0  0  0  0  0  0  0  0  0  0  0
    2.5352    1.5326    2.6048 N   0  0  0  0  0  0  0  0  0  0  0  0
    1.1820    2.0578    2.8232 C   0  0  0  0  0  0  0  0  0  0  0  0
    1.3390    3.5649    2.5890 C   0  0  0  0  0  0  0  0  0  0  0  0
    2.7897    3.8371    3.0098 C   0  0  0  0  0  0  0  0  0  0  0  0
    3.5554    2.5973    2.5091 C   0  0  2  0  0  0  0  0  0  0  0  0
    4.1239    2.7258    1.0835 C   0  0  0  0  0  0  0  0  0  0  0  0
    5.3469    3.6466    1.0008 C   0  0  0  0  0  0  0  0  0  0  0  0
    5.9138    3.7123   -0.4094 C   0  0  0  0  0  0  0  0  0  0  0  0
    7.3488    4.8135   -0.5066 Cl  0  0  0  0  0  0  0  0  0  0  0  0
    1.1750   -1.1274    1.4039 C   0  0  0  0  0  0  0  0  0  0  0  0
   -0.2193   -1.1536    1.2446 C   0  0  0  0  0  0  0  0  0  0  0  0
   -0.7967   -1.4599    0.0079 C   0  0  0  0  0  0  0  0  0  0  0  0
    0.0153   -1.7453   -1.0925 C   0  0  0  0  0  0  0  0  0  0  0  0
    1.4064   -1.7226   -0.9462 C   0  0  0  0  0  0  0  0  0  0  0  0
    1.9814   -1.4173    0.2896 C   0  0  0  0  0  0  0  0  0  0  0  0
    2.7508   -1.8933    4.4271 H   0  0  0  0  0  0  0  0  0  0  0  0
    3.1976   -2.5090    2.8243 H   0  0  0  0  0  0  0  0  0  0  0  0
    1.5810   -2.8757    3.4980 H   0  0  0  0  0  0  0  0  0  0  0  0
    1.0075   -0.4374    3.4167 H   0  0  0  0  0  0  0  0  0  0  0  0
    0.8427    1.8567    3.8569 H   0  0  0  0  0  0  0  0  0  0  0  0
    0.4533    1.5992    2.1380 H   0  0  0  0  0  0  0  0  0  0  0  0
    0.6014    4.1549    3.1526 H   0  0  0  0  0  0  0  0  0  0  0  0
    1.1989    3.7971    1.5208 H   0  0  0  0  0  0  0  0  0  0  0  0
    2.8587    3.9001    4.1085 H   0  0  0  0  0  0  0  0  0  0  0  0
    3.1891    4.7774    2.6031 H   0  0  0  0  0  0  0  0  0  0  0  0
    4.3904    2.3334    3.1776 H   0  0  0  0  0  0  0  0  0  0  0  0
    3.3320    3.0791    0.3986 H   0  0  0  0  0  0  0  0  0  0  0  0
    4.4091    1.7154    0.7529 H   0  0  0  0  0  0  0  0  0  0  0  0
    6.1336    3.2857    1.6847 H   0  0  0  0  0  0  0  0  0  0  0  0
    5.0947    4.6698    1.3263 H   0  0  0  0  0  0  0  0  0  0  0  0
    5.1755    4.0983   -1.1270 H   0  0  0  0  0  0  0  0  0  0  0  0
    6.2507    2.7254   -0.7567 H   0  0  0  0  0  0  0  0  0  0  0  0
   -0.8633   -0.9384    2.1027 H   0  0  0  0  0  0  0  0  0  0  0  0
   -1.8851   -1.4765   -0.0939 H   0  0  0  0  0  0  0  0  0  0  0  0
   -0.4330   -1.9849   -2.0601 H   0  0  0  0  0  0  0  0  0  0  0  0
    2.0498   -1.9449   -1.8018 H   0  0  0  0  0  0  0  0  0  0  0  0
    3.0688   -1.3988    0.3985 H   0  0  0  0  0  0  0  0  0  0  0  0
  1  2  1  0
  1 20  1  0
  1 21  1  0
  1 22  1  0
  2  3  1  0
  2 14  1  0
  2 23  1  1
  3  4  2  0
  3  5  1  0
  5  6  1  0
  5  9  1  0
  6  7  1  0
  6 24  1  0
  6 25  1  0
  7  8  1  0
  7 26  1  0
  7 27  1  0
  8  9  1  0
  8 28  1  0
  8 29  1  0
  9 10  1  0
  9 30  1  1
 10 11  1  0
 10 31  1  0
 10 32  1  0
 11 12  1  0
 11 33  1  0
 11 34  1  0
 12 13  1  0
 12 35  1  0
 12 36  1  0
 14 15  2  0
 14 19  1  0
 15 16  1  0
 15 37  1  0
 16 17  2  0
 16 38  1  0
 17 18  1  0
 17 39  1  0
 18 19  2  0
 18 40  1  0
 19 41  1  0
M  END

