
     RDKit          3D

 37 38  0  0  0  0  0  0  0  0999 V2000
    1.1307   -0.0141    1.3921 C   0  0  0  0  0  0  0  0  0  0  0  0
    2.4564   -0.0405    0.6894 C   0  0  0  0  0  0  0  0  0  0  0  0
    3.3455    1.4397    0.4698 S   0  0  0  0  0  0  0  0  0  0  0  0
    4.6328    0.6219   -0.3821 C   0  0  0  0  0  0  0  0  0  0  0  0
    5.8491    1.2816   -0.9207 C   0  0  0  0  0  0  0  0  0  0  0  0
    6.7742    0.6621   -1.3769 O   0  0  0  0  0  0  0  0  0  0  0  0
    5.8853    2.6359   -0.8855 O   0  0  0  0  0  0  0  0  0  0  0  0
    4.3671   -0.7245   -0.4711 C   0  0  0  0  0  0  0  0  0  0  0  0
    3.1318   -1.1120    0.1289 C   0  0  0  0  0  0  0  0  0  0  0  0
    2.6267   -2.5368    0.1030 C   0  0  0  0  0  0  0  0  0  0  0  0
    3.6765   -3.5172    0.3719 N   0  0  0  0  0  0  0  0  0  0  0  0
    4.1330   -3.4687    1.7605 C   0  0  0  0  0  0  0  0  0  0  0  0
    5.5998   -3.8602    1.9806 C   0  0  0  0  0  0  0  0  0  0  0  0
    5.9733   -3.6949    3.3330 O   0  0  0  0  0  0  0  0  0  0  0  0
    3.2993   -4.8517   -0.0703 C   0  0  1  0  0  0  0  0  0  0  0  0
    2.9208   -5.0549   -1.5598 C   0  0  0  0  0  0  0  0  0  0  0  0
    3.6351   -6.4286   -1.5092 C   0  0  0  0  0  0  0  0  0  0  0  0
    4.3965   -5.9341   -0.2559 C   0  0  0  0  0  0  0  0  0  0  0  0
    1.0448    0.8545    2.0617 H   0  0  0  0  0  0  0  0  0  0  0  0
    0.9903   -0.9217    1.9991 H   0  0  0  0  0  0  0  0  0  0  0  0
    0.2916    0.0361    0.6767 H   0  0  0  0  0  0  0  0  0  0  0  0
    5.0502    3.0090   -0.5684 H   0  0  0  0  0  0  0  0  0  0  0  0
    5.0527   -1.4212   -0.9532 H   0  0  0  0  0  0  0  0  0  0  0  0
    2.2260   -2.7390   -0.9036 H   0  0  0  0  0  0  0  0  0  0  0  0
    1.7634   -2.6459    0.7965 H   0  0  0  0  0  0  0  0  0  0  0  0
    3.4935   -4.0874    2.4283 H   0  0  0  0  0  0  0  0  0  0  0  0
    4.0292   -2.4286    2.1134 H   0  0  0  0  0  0  0  0  0  0  0  0
    6.2375   -3.2735    1.2907 H   0  0  0  0  0  0  0  0  0  0  0  0
    5.7669   -4.9217    1.7505 H   0  0  0  0  0  0  0  0  0  0  0  0
    5.9839   -2.7491    3.5302 H   0  0  0  0  0  0  0  0  0  0  0  0
    2.4880   -5.2660    0.5727 H   0  0  0  0  0  0  0  0  0  0  0  0
    3.4728   -4.3440   -2.1949 H   0  0  0  0  0  0  0  0  0  0  0  0
    1.8548   -5.0316   -1.8344 H   0  0  0  0  0  0  0  0  0  0  0  0
    4.2334   -6.7209   -2.3846 H   0  0  0  0  0  0  0  0  0  0  0  0
    2.9375   -7.2476   -1.2749 H   0  0  0  0  0  0  0  0  0  0  0  0
    5.3518   -5.4638   -0.5331 H   0  0  0  0  0  0  0  0  0  0  0  0
    4.5674   -6.6456    0.5662 H   0  0  0  0  0  0  0  0  0  0  0  0
  1  2  1  0
  1 19  1  0
  1 20  1  0
  1 21  1  0
  2  3  2  0
  2  9  1  0
  3  4  1  0
  4  5  2  0
  4  8  1  0
  5  6  1  0
  5  7  1  0
  7 22  1  0
  8  9  2  0
  8 23  1  0
  9 10  1  0
 10 11  1  0
 10 24  1  0
 10 25  1  0
 11 12  1  0
 11 15  1  0
 12 13  1  0
 12 26  1  0
 12 27  1  0
 13 14  1  0
 13 28  1  0
 13 29  1  0
 14 30  1  0
 15 16  1  0
 15 18  1  0
 15 31  1  1
 16 17  1  0
 16 32  1  0
 16 33  1  0
 17 18  1  0
 17 34  1  0
 17 35  1  0
 18 36  1  0
 18 37  1  0
M  CHG  2   3   1   6  -1
M  END

