
     RDKit          3D

 23 22  0  0  0  0  0  0  0  0999 V2000
    0.8143   -0.3139   -0.1208 C   0  0  0  0  0  0  0  0  0  0  0  0
    2.3433   -0.3042   -0.0695 C   0  0  0  0  0  0  0  0  0  0  0  0
    2.9577    0.8467   -0.8781 C   0  0  0  0  0  0  0  0  0  0  0  0
    4.4832    0.9445   -0.7855 C   0  0  1  0  0  0  0  0  0  0  0  0
    5.2302   -0.2183   -1.4436 C   0  0  0  0  0  0  0  0  0  0  0  0
    5.1282    2.4868   -1.6197 S   0  0  0  0  0  0  0  0  0  0  0  0
    4.3320    4.0562   -0.5046 S   0  0  0  0  0  0  0  0  0  0  0  0
    5.6099    4.2987    0.8062 C   0  0  0  0  0  0  0  0  0  0  0  0
    5.2693    5.8232    1.7429 S   0  0  0  0  0  0  0  0  0  0  0  0
    0.3958   -1.1459    0.4678 H   0  0  0  0  0  0  0  0  0  0  0  0
    0.4494   -0.4218   -1.1560 H   0  0  0  0  0  0  0  0  0  0  0  0
    0.3940    0.6236    0.2797 H   0  0  0  0  0  0  0  0  0  0  0  0
    2.7240   -1.2731   -0.4370 H   0  0  0  0  0  0  0  0  0  0  0  0
    2.6758   -0.2273    0.9821 H   0  0  0  0  0  0  0  0  0  0  0  0
    2.5283    1.7975   -0.5195 H   0  0  0  0  0  0  0  0  0  0  0  0
    2.6695    0.7571   -1.9412 H   0  0  0  0  0  0  0  0  0  0  0  0
    4.7852    1.0168    0.2726 H   0  0  0  0  0  0  0  0  0  0  0  0
    4.9789   -0.2966   -2.5145 H   0  0  0  0  0  0  0  0  0  0  0  0
    4.9570   -1.1714   -0.9643 H   0  0  0  0  0  0  0  0  0  0  0  0
    6.3209   -0.0986   -1.3548 H   0  0  0  0  0  0  0  0  0  0  0  0
    6.6063    4.3137    0.3437 H   0  0  0  0  0  0  0  0  0  0  0  0
    5.5671    3.4820    1.5409 H   0  0  0  0  0  0  0  0  0  0  0  0
    5.5105    6.6817    0.7240 H   0  0  0  0  0  0  0  0  0  0  0  0
  1  2  1  0
  1 10  1  0
  1 11  1  0
  1 12  1  0
  2  3  1  0
  2 13  1  0
  2 14  1  0
  3  4  1  0
  3 15  1  0
  3 16  1  0
  4  5  1  0
  4  6  1  0
  4 17  1  1
  5 18  1  0
  5 19  1  0
  5 20  1  0
  6  7  1  0
  7  8  1  0
  8  9  1  0
  8 21  1  0
  8 22  1  0
  9 23  1  0
M  END

