
     RDKit          3D

 67 70  0  0  0  0  0  0  0  0999 V2000
    1.0904    0.8085   -0.7028 C   0  0  0  0  0  0  0  0  0  0  0  0
    2.3242    0.3433   -0.2133 O   0  0  0  0  0  0  0  0  0  0  0  0
    2.8227   -0.8350   -0.6821 C   0  0  0  0  0  0  0  0  0  0  0  0
    4.0653   -1.2290   -0.1643 C   0  0  0  0  0  0  0  0  0  0  0  0
    4.6755   -2.4165   -0.5672 C   0  0  0  0  0  0  0  0  0  0  0  0
    6.0232   -2.8173   -0.0226 C   0  0  0  0  0  0  0  0  0  0  0  0
    4.0134   -3.2404   -1.5107 C   0  0  0  0  0  0  0  0  0  0  0  0
    4.6455   -4.3990   -1.9991 N   0  0  0  0  0  0  0  0  0  0  0  0
    4.6619   -5.5282   -1.4367 C   0  0  0  0  0  0  0  0  0  0  0  0
    5.4138   -6.5955   -1.8929 N   0  0  0  0  0  0  0  0  0  0  0  0
    6.4655   -6.3788   -2.7148 N   0  0  0  0  0  0  0  0  0  0  0  0
    7.0799   -7.3663   -3.2640 C   0  0  0  0  0  0  0  0  0  0  0  0
    6.8054   -8.8192   -3.2278 C   0  0  0  0  0  0  0  0  0  0  0  0
    5.5096   -9.3751   -3.2286 C   0  0  0  0  0  0  0  0  0  0  0  0
    5.3219  -10.7556   -3.2238 C   0  0  0  0  0  0  0  0  0  0  0  0
    6.4235  -11.6260   -3.2181 C   0  0  0  0  0  0  0  0  0  0  0  0
    6.2107  -13.0794   -3.2014 C   0  0  0  0  0  0  0  0  0  0  0  0
    4.9675  -13.6543   -3.2210 N   0  0  0  0  0  0  0  0  0  0  0  0
    5.2255  -14.9397   -3.1968 C   0  0  0  0  0  0  0  0  0  0  0  0
    6.5736  -15.1518   -3.1696 N   0  0  0  0  0  0  0  0  0  0  0  0
    7.2937  -16.3734   -3.1170 C   0  0  0  0  0  0  0  0  0  0  0  0
    6.6995  -17.5699   -3.5414 C   0  0  0  0  0  0  0  0  0  0  0  0
    7.4152  -18.7627   -3.4691 C   0  0  0  0  0  0  0  0  0  0  0  0
    8.7237  -18.7625   -2.9817 C   0  0  0  0  0  0  0  0  0  0  0  0
    9.3356  -20.0086   -2.9202 O   0  0  0  0  0  0  0  0  0  0  0  0
   10.6746  -20.1542   -3.0411 C   0  0  1  0  0  0  0  0  0  0  0  0
   11.1607  -19.5128   -4.1101 F   0  0  0  0  0  0  0  0  0  0  0  0
   11.3392  -19.6966   -1.9652 F   0  0  0  0  0  0  0  0  0  0  0  0
   10.9286  -21.4484   -3.1623 F   0  0  0  0  0  0  0  0  0  0  0  0
    9.3264  -17.5732   -2.5614 C   0  0  0  0  0  0  0  0  0  0  0  0
    8.6078  -16.3798   -2.6342 C   0  0  0  0  0  0  0  0  0  0  0  0
    7.2056  -13.9593   -3.1674 N   0  0  0  0  0  0  0  0  0  0  0  0
    7.7202  -11.0819   -3.2395 C   0  0  0  0  0  0  0  0  0  0  0  0
    7.9036   -9.7039   -3.2546 C   0  0  0  0  0  0  0  0  0  0  0  0
    3.6200   -5.9106    0.0342 S   0  0  0  0  0  0  0  0  0  0  0  0
    4.7459   -6.8883    1.1055 C   0  0  0  0  0  0  0  0  0  0  0  0
    4.7706   -8.4085    0.8926 C   0  0  0  0  0  0  0  0  0  0  0  0
    5.5477   -9.1094    1.4770 O   0  0  0  0  0  0  0  0  0  0  0  0
    3.8764   -8.8989    0.0153 O   0  0  0  0  0  0  0  0  0  0  0  0
    2.7786   -2.8432   -2.0601 C   0  0  0  0  0  0  0  0  0  0  0  0
    2.1051   -3.7045   -3.0992 C   0  0  0  0  0  0  0  0  0  0  0  0
    2.1881   -1.6435   -1.6319 C   0  0  0  0  0  0  0  0  0  0  0  0
    0.8884    1.7615   -0.1945 H   0  0  0  0  0  0  0  0  0  0  0  0
    0.2649    0.1063   -0.4822 H   0  0  0  0  0  0  0  0  0  0  0  0
    1.1170    0.9863   -1.7939 H   0  0  0  0  0  0  0  0  0  0  0  0
    4.5522   -0.5729    0.5607 H   0  0  0  0  0  0  0  0  0  0  0  0
    6.4896   -1.9905    0.5320 H   0  0  0  0  0  0  0  0  0  0  0  0
    6.7021   -3.1275   -0.8331 H   0  0  0  0  0  0  0  0  0  0  0  0
    5.9411   -3.6751    0.6679 H   0  0  0  0  0  0  0  0  0  0  0  0
    5.1469   -7.5410   -1.6207 H   0  0  0  0  0  0  0  0  0  0  0  0
    7.9715   -7.0647   -3.8290 H   0  0  0  0  0  0  0  0  0  0  0  0
    4.6320   -8.7269   -3.2742 H   0  0  0  0  0  0  0  0  0  0  0  0
    4.3164  -11.1791   -3.2266 H   0  0  0  0  0  0  0  0  0  0  0  0
    4.4940  -15.7454   -3.1767 H   0  0  0  0  0  0  0  0  0  0  0  0
    5.6888  -17.5778   -3.9520 H   0  0  0  0  0  0  0  0  0  0  0  0
    6.9742  -19.7038   -3.8013 H   0  0  0  0  0  0  0  0  0  0  0  0
   10.3415  -17.5678   -2.1667 H   0  0  0  0  0  0  0  0  0  0  0  0
    9.0574  -15.4409   -2.3125 H   0  0  0  0  0  0  0  0  0  0  0  0
    8.5799  -11.7542   -3.2490 H   0  0  0  0  0  0  0  0  0  0  0  0
    8.9171   -9.2945   -3.2792 H   0  0  0  0  0  0  0  0  0  0  0  0
    4.4132   -6.7012    2.1388 H   0  0  0  0  0  0  0  0  0  0  0  0
    5.7761   -6.5119    1.0331 H   0  0  0  0  0  0  0  0  0  0  0  0
    3.2964   -8.1648   -0.2776 H   0  0  0  0  0  0  0  0  0  0  0  0
    2.8122   -3.9818   -3.8977 H   0  0  0  0  0  0  0  0  0  0  0  0
    1.2471   -3.1874   -3.5533 H   0  0  0  0  0  0  0  0  0  0  0  0
    1.7327   -4.6502   -2.6677 H   0  0  0  0  0  0  0  0  0  0  0  0
    1.2292   -1.3542   -2.0633 H   0  0  0  0  0  0  0  0  0  0  0  0
  1  2  1  0
  1 43  1  0
  1 44  1  0
  1 45  1  0
  2  3  1  0
  3  4  2  0
  3 42  1  0
  4  5  1  0
  4 46  1  0
  5  6  1  0
  5  7  2  0
  6 47  1  0
  6 48  1  0
  6 49  1  0
  7  8  1  0
  7 40  1  0
  8  9  2  0
  9 10  1  0
  9 35  1  0
 10 11  1  0
 10 50  1  0
 11 12  2  0
 12 13  1  0
 12 51  1  0
 13 14  2  0
 13 34  1  0
 14 15  1  0
 14 52  1  0
 15 16  2  0
 15 53  1  0
 16 17  1  0
 16 33  1  0
 17 18  1  0
 17 32  2  0
 18 19  2  0
 19 20  1  0
 19 54  1  0
 20 21  1  0
 20 32  1  0
 21 22  2  0
 21 31  1  0
 22 23  1  0
 22 55  1  0
 23 24  2  0
 23 56  1  0
 24 25  1  0
 24 30  1  0
 25 26  1  0
 26 27  1  6
 26 28  1  0
 26 29  1  0
 30 31  2  0
 30 57  1  0
 31 58  1  0
 33 34  2  0
 33 59  1  0
 34 60  1  0
 35 36  1  0
 36 37  1  0
 36 61  1  0
 36 62  1  0
 37 38  2  0
 37 39  1  0
 39 63  1  0
 40 41  1  0
 40 42  2  0
 41 64  1  0
 41 65  1  0
 41 66  1  0
 42 67  1  0
M  END

