
     RDKit          3D

 35 36  0  0  0  0  0  0  0  0999 V2000
    2.3240    0.7533   -0.0206 C   0  0  0  0  0  0  0  0  0  0  0  0
    3.0264    0.0250    1.1365 C   0  0  0  0  0  0  0  0  0  0  0  0
    3.2767   -1.4361    0.8844 C   0  0  0  0  0  0  0  0  0  0  0  0
    4.4752   -2.0615    0.6044 C   0  0  0  0  0  0  0  0  0  0  0  0
    4.3492   -3.4578    0.3877 C   0  0  0  0  0  0  0  0  0  0  0  0
    3.0504   -3.9130    0.4996 C   0  0  0  0  0  0  0  0  0  0  0  0
    2.6244   -5.3206    0.3132 C   0  0  0  0  0  0  0  0  0  0  0  0
    3.4434   -6.1825    0.0594 O   0  0  0  0  0  0  0  0  0  0  0  0
    1.1293   -5.6196    0.4538 C   0  0  0  0  0  0  0  0  0  0  0  0
    0.7788   -7.0060    0.2593 N   0  0  0  0  0  0  0  0  0  0  0  0
    1.1926   -7.8692    1.3514 C   0  0  0  0  0  0  0  0  0  0  0  0
   -0.6075   -7.2063   -0.1370 C   0  0  0  0  0  0  0  0  0  0  0  0
   -0.9153   -6.6475   -1.5058 C   0  0  0  0  0  0  0  0  0  0  0  0
   -2.0472   -5.9379   -1.8274 C   0  0  0  0  0  0  0  0  0  0  0  0
   -2.1015   -5.5084   -3.5065 S   0  0  0  0  0  0  0  0  0  0  0  0
   -0.5681   -6.2840   -3.7802 C   0  0  0  0  0  0  0  0  0  0  0  0
    0.2086   -6.2874   -5.4957 Br  0  0  0  0  0  0  0  0  0  0  0  0
   -0.0558   -6.8423   -2.6392 C   0  0  0  0  0  0  0  0  0  0  0  0
    1.9728   -2.5881    0.8806 S   0  0  0  0  0  0  0  0  0  0  0  0
    2.1799    1.8182    0.2214 H   0  0  0  0  0  0  0  0  0  0  0  0
    1.3343    0.3160   -0.2262 H   0  0  0  0  0  0  0  0  0  0  0  0
    2.9163    0.6887   -0.9467 H   0  0  0  0  0  0  0  0  0  0  0  0
    2.4317    0.1456    2.0588 H   0  0  0  0  0  0  0  0  0  0  0  0
    4.0012    0.4992    1.3363 H   0  0  0  0  0  0  0  0  0  0  0  0
    5.4223   -1.5201    0.5604 H   0  0  0  0  0  0  0  0  0  0  0  0
    5.1695   -4.1372    0.1538 H   0  0  0  0  0  0  0  0  0  0  0  0
    0.6123   -5.0057   -0.3036 H   0  0  0  0  0  0  0  0  0  0  0  0
    0.7911   -5.2194    1.4411 H   0  0  0  0  0  0  0  0  0  0  0  0
    2.2732   -7.7680    1.5160 H   0  0  0  0  0  0  0  0  0  0  0  0
    0.9902   -8.9204    1.0933 H   0  0  0  0  0  0  0  0  0  0  0  0
    0.6641   -7.6456    2.3073 H   0  0  0  0  0  0  0  0  0  0  0  0
   -1.3347   -6.7930    0.6001 H   0  0  0  0  0  0  0  0  0  0  0  0
   -0.7822   -8.2963   -0.1550 H   0  0  0  0  0  0  0  0  0  0  0  0
   -2.8624   -5.6466   -1.1654 H   0  0  0  0  0  0  0  0  0  0  0  0
    0.9021   -7.3590   -2.5826 H   0  0  0  0  0  0  0  0  0  0  0  0
  1  2  1  0
  1 20  1  0
  1 21  1  0
  1 22  1  0
  2  3  1  0
  2 23  1  0
  2 24  1  0
  3  4  2  0
  3 19  1  0
  4  5  1  0
  4 25  1  0
  5  6  2  0
  5 26  1  0
  6  7  1  0
  6 19  1  0
  7  8  2  0
  7  9  1  0
  9 10  1  0
  9 27  1  0
  9 28  1  0
 10 11  1  0
 10 12  1  0
 11 29  1  0
 11 30  1  0
 11 31  1  0
 12 13  1  0
 12 32  1  0
 12 33  1  0
 13 14  2  0
 13 18  1  0
 14 15  1  0
 14 34  1  0
 15 16  1  0
 16 17  1  0
 16 18  2  0
 18 35  1  0
M  END

