
     RDKit          3D

 28 31  0  0  0  0  0  0  0  0999 V2000
    0.8312    0.0466    0.0275 O   0  0  0  0  0  0  0  0  0  0  0  0
    2.0443    0.0525    0.0251 C   0  0  0  0  0  0  0  0  0  0  0  0
    2.8839    1.2833    0.0226 C   0  0  0  0  0  0  0  0  0  0  0  0
    2.2575    2.5375    0.0228 C   0  0  0  0  0  0  0  0  0  0  0  0
    3.0371    3.6887    0.0204 C   0  0  0  0  0  0  0  0  0  0  0  0
    2.2740    5.2591    0.0208 Cl  0  0  0  0  0  0  0  0  0  0  0  0
    4.4435    3.6102    0.0177 C   0  0  0  0  0  0  0  0  0  0  0  0
    5.0645    2.3705    0.0174 C   0  0  0  0  0  0  0  0  0  0  0  0
    4.2993    1.1838    0.0199 C   0  0  0  0  0  0  0  0  0  0  0  0
    4.9438   -0.0407    0.0196 N   0  0  0  0  0  0  0  0  0  0  0  0
    4.1716   -1.0789    0.0219 C   0  0  0  0  0  0  0  0  0  0  0  0
    2.8041   -1.1246    0.0246 N   0  0  0  0  0  0  0  0  0  0  0  0
    2.2255   -2.5815    0.0269 B   0  0  2  0  0  0  0  0  0  0  0  0
    1.5725   -2.9317   -1.1179 F   0  0  0  0  0  0  0  0  0  0  0  0
    1.5768   -2.9298    1.1746 F   0  0  0  0  0  0  0  0  0  0  0  0
    3.6882   -3.3413    0.0247 N   0  0  0  0  0  0  0  0  0  0  0  0
    3.9087   -4.6613    0.0254 C   0  0  0  0  0  0  0  0  0  0  0  0
    5.2109   -5.1530    0.0233 C   0  0  0  0  0  0  0  0  0  0  0  0
    6.2810   -4.2456    0.0206 C   0  0  0  0  0  0  0  0  0  0  0  0
    6.0313   -2.8729    0.0199 C   0  0  0  0  0  0  0  0  0  0  0  0
    4.7022   -2.4562    0.0220 C   0  0  0  0  0  0  0  0  0  0  0  0
    1.1674    2.5800    0.0250 H   0  0  0  0  0  0  0  0  0  0  0  0
    5.0311    4.5299    0.0158 H   0  0  0  0  0  0  0  0  0  0  0  0
    6.1527    2.2829    0.0154 H   0  0  0  0  0  0  0  0  0  0  0  0
    3.0252   -5.3036    0.0276 H   0  0  0  0  0  0  0  0  0  0  0  0
    5.3832   -6.2302    0.0239 H   0  0  0  0  0  0  0  0  0  0  0  0
    7.3094   -4.6147    0.0189 H   0  0  0  0  0  0  0  0  0  0  0  0
    6.8210   -2.1210    0.0178 H   0  0  0  0  0  0  0  0  0  0  0  0
  1  2  2  0
  2  3  1  0
  2 12  1  0
  3  4  2  0
  3  9  1  0
  4  5  1  0
  4 22  1  0
  5  6  1  0
  5  7  2  0
  7  8  1  0
  7 23  1  0
  8  9  2  0
  8 24  1  0
  9 10  1  0
 10 11  2  0
 11 12  1  0
 11 21  1  0
 12 13  1  0
 13 14  1  6
 13 15  1  0
 13 16  1  0
 16 17  1  0
 16 21  2  0
 17 18  2  0
 17 25  1  0
 18 19  1  0
 18 26  1  0
 19 20  2  0
 19 27  1  0
 20 21  1  0
 20 28  1  0
M  CHG  2  13  -1  16   1
M  END

