
     RDKit          3D

 36 38  0  0  0  0  0  0  0  0999 V2000
    1.0154   -0.2808   -0.2713 O   0  0  0  0  0  0  0  0  0  0  0  0
    2.2171   -0.1904   -0.1251 C   0  0  0  0  0  0  0  0  0  0  0  0
    2.8763   -0.7674    0.9511 N   0  0  0  0  0  0  0  0  0  0  0  0
    2.2872   -1.7964    1.7515 C   0  0  0  0  0  0  0  0  0  0  0  0
    2.9089   -3.0546    1.7358 C   0  0  0  0  0  0  0  0  0  0  0  0
    2.3927   -4.1184    2.4736 C   0  0  0  0  0  0  0  0  0  0  0  0
    1.2214   -3.9413    3.2153 C   0  0  0  0  0  0  0  0  0  0  0  0
    0.5991   -2.6954    3.2302 C   0  0  0  0  0  0  0  0  0  0  0  0
    1.1273   -1.5965    2.5316 C   0  0  0  0  0  0  0  0  0  0  0  0
    0.3706   -0.2978    2.7313 C   0  0  0  0  0  0  0  0  0  0  0  0
   -0.7994   -0.2892    3.0323 O   0  0  0  0  0  0  0  0  0  0  0  0
    1.1552    0.8505    2.6416 N   0  0  0  0  0  0  0  0  0  0  0  0
    0.7415    2.1629    2.7930 C   0  0  0  0  0  0  0  0  0  0  0  0
   -0.3592    2.5843    3.3279 N   0  0  0  0  0  0  0  0  0  0  0  0
   -0.4247    3.9537    3.3051 C   0  0  0  0  0  0  0  0  0  0  0  0
    0.6418    4.6090    2.7561 C   0  0  0  0  0  0  0  0  0  0  0  0
    1.8167    3.4513    2.2041 S   0  0  0  0  0  0  0  0  0  0  0  0
    3.0372    0.6719   -1.0650 C   0  0  0  0  0  0  0  0  0  0  0  0
    2.3054    1.6999   -1.6915 C   0  0  0  0  0  0  0  0  0  0  0  0
    2.8805    2.5831   -2.5975 C   0  0  0  0  0  0  0  0  0  0  0  0
    4.2341    2.4375   -2.9159 C   0  0  0  0  0  0  0  0  0  0  0  0
    4.9853    3.5238   -4.0501 Cl  0  0  0  0  0  0  0  0  0  0  0  0
    4.9946    1.4204   -2.3375 C   0  0  0  0  0  0  0  0  0  0  0  0
    4.3950    0.5517   -1.4211 C   0  0  0  0  0  0  0  0  0  0  0  0
    5.4470   -0.7159   -0.7901 Cl  0  0  0  0  0  0  0  0  0  0  0  0
    3.8882   -0.8157    0.8745 H   0  0  0  0  0  0  0  0  0  0  0  0
    3.7964   -3.1959    1.1138 H   0  0  0  0  0  0  0  0  0  0  0  0
    2.8945   -5.0888    2.4502 H   0  0  0  0  0  0  0  0  0  0  0  0
    0.7948   -4.7723    3.7818 H   0  0  0  0  0  0  0  0  0  0  0  0
   -0.3175   -2.5315    3.7994 H   0  0  0  0  0  0  0  0  0  0  0  0
    2.1066    0.7117    2.3157 H   0  0  0  0  0  0  0  0  0  0  0  0
   -1.3006    4.4516    3.7261 H   0  0  0  0  0  0  0  0  0  0  0  0
    0.8100    5.6789    2.6517 H   0  0  0  0  0  0  0  0  0  0  0  0
    1.2467    1.7803   -1.4399 H   0  0  0  0  0  0  0  0  0  0  0  0
    2.2907    3.3761   -3.0589 H   0  0  0  0  0  0  0  0  0  0  0  0
    6.0447    1.2972   -2.6006 H   0  0  0  0  0  0  0  0  0  0  0  0
  1  2  2  0
  2  3  1  0
  2 18  1  0
  3  4  1  0
  3 26  1  0
  4  5  2  0
  4  9  1  0
  5  6  1  0
  5 27  1  0
  6  7  2  0
  6 28  1  0
  7  8  1  0
  7 29  1  0
  8  9  2  0
  8 30  1  0
  9 10  1  0
 10 11  2  0
 10 12  1  0
 12 13  1  0
 12 31  1  0
 13 14  2  0
 13 17  1  0
 14 15  1  0
 15 16  2  0
 15 32  1  0
 16 17  1  0
 16 33  1  0
 18 19  2  0
 18 24  1  0
 19 20  1  0
 19 34  1  0
 20 21  2  0
 20 35  1  0
 21 22  1  0
 21 23  1  0
 23 24  2  0
 23 36  1  0
 24 25  1  0
M  END

