
     RDKit          3D

 35 36  0  0  0  0  0  0  0  0999 V2000
    1.2482   -0.3507   -1.0168 C   0  0  0  0  0  0  0  0  0  0  0  0
    2.6637   -0.1455   -0.5400 C   0  0  0  0  0  0  0  0  0  0  0  0
    3.2935    1.0948   -0.6431 C   0  0  0  0  0  0  0  0  0  0  0  0
    4.6174    1.3100   -0.2134 C   0  0  0  0  0  0  0  0  0  0  0  0
    5.3458    2.5964   -0.3750 C   0  0  0  0  0  0  0  0  0  0  0  0
    6.5671    2.6407   -0.3559 O   0  0  0  0  0  0  0  0  0  0  0  0
    4.5859    3.8898   -0.5648 C   0  0  0  0  0  0  0  0  0  0  0  0
    3.3966    4.1932    0.1188 C   0  0  0  0  0  0  0  0  0  0  0  0
    2.7823    5.4414   -0.0303 C   0  0  0  0  0  0  0  0  0  0  0  0
    3.3433    6.4055   -0.8696 C   0  0  0  0  0  0  0  0  0  0  0  0
    4.5375    6.1042   -1.5328 C   0  0  0  0  0  0  0  0  0  0  0  0
    5.2683    7.3440   -2.6254 S   0  0  1  0  0  0  0  0  0  0  0  0
    6.4761    8.1941   -1.5834 C   0  0  0  0  0  0  0  0  0  0  0  0
    6.0176    6.6397   -3.6740 O   0  0  0  0  0  0  0  0  0  0  0  0
    4.2191    8.3183   -2.9590 O   0  0  0  0  0  0  0  0  0  0  0  0
    5.1636    4.8679   -1.3903 C   0  0  0  0  0  0  0  0  0  0  0  0
    5.3214    0.2153    0.3252 C   0  0  0  0  0  0  0  0  0  0  0  0
    4.7165   -1.0234    0.4558 C   0  0  0  0  0  0  0  0  0  0  0  0
    3.3847   -1.2301    0.0298 C   0  0  0  0  0  0  0  0  0  0  0  0
    2.7863   -2.4581    0.1949 N   0  0  0  0  0  0  0  0  0  0  0  0
    0.8241    0.5798   -1.4196 H   0  0  0  0  0  0  0  0  0  0  0  0
    0.5882   -0.6931   -0.1997 H   0  0  0  0  0  0  0  0  0  0  0  0
    1.1881   -1.1094   -1.8193 H   0  0  0  0  0  0  0  0  0  0  0  0
    2.7365    1.9128   -1.1051 H   0  0  0  0  0  0  0  0  0  0  0  0
    2.9553    3.4537    0.7898 H   0  0  0  0  0  0  0  0  0  0  0  0
    1.8582    5.6614    0.5099 H   0  0  0  0  0  0  0  0  0  0  0  0
    2.8694    7.3765   -1.0262 H   0  0  0  0  0  0  0  0  0  0  0  0
    7.2311    7.4750   -1.2404 H   0  0  0  0  0  0  0  0  0  0  0  0
    5.9569    8.6710   -0.7422 H   0  0  0  0  0  0  0  0  0  0  0  0
    6.9312    8.9511   -2.2378 H   0  0  0  0  0  0  0  0  0  0  0  0
    6.0924    4.6476   -1.9194 H   0  0  0  0  0  0  0  0  0  0  0  0
    6.3573    0.3665    0.6348 H   0  0  0  0  0  0  0  0  0  0  0  0
    5.2715   -1.8610    0.8885 H   0  0  0  0  0  0  0  0  0  0  0  0
    3.3772   -3.2512    0.4096 H   0  0  0  0  0  0  0  0  0  0  0  0
    1.9567   -2.6760   -0.3405 H   0  0  0  0  0  0  0  0  0  0  0  0
  1  2  1  0
  1 21  1  0
  1 22  1  0
  1 23  1  0
  2  3  2  0
  2 19  1  0
  3  4  1  0
  3 24  1  0
  4  5  1  0
  4 17  2  0
  5  6  2  0
  5  7  1  0
  7  8  2  0
  7 16  1  0
  8  9  1  0
  8 25  1  0
  9 10  2  0
  9 26  1  0
 10 11  1  0
 10 27  1  0
 11 12  1  0
 11 16  2  0
 12 13  1  1
 12 14  2  0
 12 15  2  0
 13 28  1  0
 13 29  1  0
 13 30  1  0
 16 31  1  0
 17 18  1  0
 17 32  1  0
 18 19  2  0
 18 33  1  0
 19 20  1  0
 20 34  1  0
 20 35  1  0
M  END

