
     RDKit          3D

 35 36  0  0  0  0  0  0  0  0999 V2000
    4.5715   -1.4658    2.3309 F   0  0  0  0  0  0  0  0  0  0  0  0
    5.1518   -0.4709    1.6368 C   0  0  1  0  0  0  0  0  0  0  0  0
    6.2613   -0.0944    2.3145 F   0  0  0  0  0  0  0  0  0  0  0  0
    5.4806   -0.9756    0.4098 O   0  0  0  0  0  0  0  0  0  0  0  0
    5.5148   -0.1244   -0.6839 C   0  0  0  0  0  0  0  0  0  0  0  0
    6.0517    1.1621   -0.5950 C   0  0  0  0  0  0  0  0  0  0  0  0
    6.0773    1.9841   -1.7252 C   0  0  0  0  0  0  0  0  0  0  0  0
    5.5800    1.4944   -2.9328 C   0  0  0  0  0  0  0  0  0  0  0  0
    5.6081    2.5069   -4.3581 Cl  0  0  0  0  0  0  0  0  0  0  0  0
    5.0611    0.1977   -3.0177 C   0  0  0  0  0  0  0  0  0  0  0  0
    5.0182   -0.6373   -1.8961 C   0  0  0  0  0  0  0  0  0  0  0  0
    4.4699   -2.0611   -1.9940 C   0  0  0  0  0  0  0  0  0  0  0  0
    3.3752   -2.4212   -1.1081 N   0  0  0  0  0  0  0  0  0  0  0  0
    2.1727   -1.5887   -1.1276 C   0  0  1  0  0  0  0  0  0  0  0  0
    1.3599   -1.8061   -2.4202 C   0  0  0  0  0  0  0  0  0  0  0  0
    0.7232   -3.1962   -2.4477 C   0  0  0  0  0  0  0  0  0  0  0  0
   -0.0868   -3.4191   -1.3079 O   0  0  0  0  0  0  0  0  0  0  0  0
    0.6421   -3.3365   -0.0989 C   0  0  0  0  0  0  0  0  0  0  0  0
    1.2834   -1.9573    0.0746 C   0  0  0  0  0  0  0  0  0  0  0  0
    4.4677    0.3941    1.5730 H   0  0  0  0  0  0  0  0  0  0  0  0
    6.4737    1.5155    0.3475 H   0  0  0  0  0  0  0  0  0  0  0  0
    6.4916    2.9917   -1.6699 H   0  0  0  0  0  0  0  0  0  0  0  0
    4.6812   -0.1644   -3.9755 H   0  0  0  0  0  0  0  0  0  0  0  0
    5.2944   -2.7656   -1.7923 H   0  0  0  0  0  0  0  0  0  0  0  0
    4.1743   -2.2345   -3.0415 H   0  0  0  0  0  0  0  0  0  0  0  0
    3.7232   -2.5126   -0.1573 H   0  0  0  0  0  0  0  0  0  0  0  0
    2.4225   -0.5075   -1.0551 H   0  0  0  0  0  0  0  0  0  0  0  0
    1.9889   -1.6615   -3.3145 H   0  0  0  0  0  0  0  0  0  0  0  0
    0.5646   -1.0432   -2.4671 H   0  0  0  0  0  0  0  0  0  0  0  0
    1.5159   -3.9681   -2.5109 H   0  0  0  0  0  0  0  0  0  0  0  0
    0.0664   -3.3093   -3.3242 H   0  0  0  0  0  0  0  0  0  0  0  0
    1.4230   -4.1225   -0.0667 H   0  0  0  0  0  0  0  0  0  0  0  0
   -0.0733   -3.5380    0.7137 H   0  0  0  0  0  0  0  0  0  0  0  0
    1.8719   -1.9251    1.0091 H   0  0  0  0  0  0  0  0  0  0  0  0
    0.4855   -1.2021    0.1688 H   0  0  0  0  0  0  0  0  0  0  0  0
  1  2  1  0
  2  3  1  0
  2  4  1  0
  2 20  1  6
  4  5  1  0
  5  6  2  0
  5 11  1  0
  6  7  1  0
  6 21  1  0
  7  8  2  0
  7 22  1  0
  8  9  1  0
  8 10  1  0
 10 11  2  0
 10 23  1  0
 11 12  1  0
 12 13  1  0
 12 24  1  0
 12 25  1  0
 13 14  1  0
 13 26  1  0
 14 15  1  0
 14 19  1  0
 14 27  1  1
 15 16  1  0
 15 28  1  0
 15 29  1  0
 16 17  1  0
 16 30  1  0
 16 31  1  0
 17 18  1  0
 18 19  1  0
 18 32  1  0
 18 33  1  0
 19 34  1  0
 19 35  1  0
M  END

