
     RDKit          3D

 37 38  0  0  0  0  0  0  0  0999 V2000
    0.8909    0.2713   -0.2380 C   0  0  0  0  0  0  0  0  0  0  0  0
    2.3760    0.0496    0.0644 C   0  0  1  0  0  0  0  0  0  0  0  0
    3.1826    0.0046   -1.2463 C   0  0  0  0  0  0  0  0  0  0  0  0
    2.9548    1.1089    1.0330 C   0  0  0  0  0  0  0  0  0  0  0  0
    4.1769    0.4361    1.6695 C   0  0  0  0  0  0  0  0  0  0  0  0
    3.8986   -1.0073    1.5492 N   0  0  0  0  0  0  0  0  0  0  0  0
    4.8495   -1.8666    2.0175 C   0  0  0  0  0  0  0  0  0  0  0  0
    5.8580   -1.4248    2.5502 O   0  0  0  0  0  0  0  0  0  0  0  0
    4.6662   -3.4149    1.8691 C   0  0  1  0  0  0  0  0  0  0  0  0
    5.0928   -3.8327    0.4550 C   0  0  1  0  0  0  0  0  0  0  0  0
    6.3752   -3.5173    0.2205 F   0  0  0  0  0  0  0  0  0  0  0  0
    4.9579   -5.1536    0.2618 F   0  0  0  0  0  0  0  0  0  0  0  0
    4.3648   -3.2320   -0.5177 F   0  0  0  0  0  0  0  0  0  0  0  0
    5.5852   -4.1498    2.8983 C   0  0  0  0  0  0  0  0  0  0  0  0
    4.6117   -4.7384    3.9205 C   0  0  0  0  0  0  0  0  0  0  0  0
    3.4727   -5.0871    3.0832 N   0  0  0  0  0  0  0  0  0  0  0  0
    3.2363   -3.9353    2.2276 C   0  0  0  0  0  0  0  0  0  0  0  0
    2.6119   -1.2383    0.8858 C   0  0  0  0  0  0  0  0  0  0  0  0
    0.7386    1.2208   -0.7763 H   0  0  0  0  0  0  0  0  0  0  0  0
    0.2907    0.3090    0.6859 H   0  0  0  0  0  0  0  0  0  0  0  0
    0.4872   -0.5359   -0.8715 H   0  0  0  0  0  0  0  0  0  0  0  0
    3.1052    0.9636   -1.7837 H   0  0  0  0  0  0  0  0  0  0  0  0
    2.8048   -0.7873   -1.9128 H   0  0  0  0  0  0  0  0  0  0  0  0
    4.2490   -0.1995   -1.0669 H   0  0  0  0  0  0  0  0  0  0  0  0
    2.2044    1.3458    1.8057 H   0  0  0  0  0  0  0  0  0  0  0  0
    3.2122    2.0519    0.5268 H   0  0  0  0  0  0  0  0  0  0  0  0
    4.3310    0.7149    2.7236 H   0  0  0  0  0  0  0  0  0  0  0  0
    5.1195    0.6707    1.1486 H   0  0  0  0  0  0  0  0  0  0  0  0
    6.3139   -3.4492    3.3205 H   0  0  0  0  0  0  0  0  0  0  0  0
    6.1273   -4.9649    2.4018 H   0  0  0  0  0  0  0  0  0  0  0  0
    4.3737   -3.9803    4.7012 H   0  0  0  0  0  0  0  0  0  0  0  0
    5.0189   -5.6252    4.4319 H   0  0  0  0  0  0  0  0  0  0  0  0
    2.6441   -5.3565    3.6100 H   0  0  0  0  0  0  0  0  0  0  0  0
    2.6893   -3.1224    2.7473 H   0  0  0  0  0  0  0  0  0  0  0  0
    2.6445   -4.2130    1.3412 H   0  0  0  0  0  0  0  0  0  0  0  0
    1.8023   -1.3551    1.6309 H   0  0  0  0  0  0  0  0  0  0  0  0
    2.6291   -2.1330    0.2561 H   0  0  0  0  0  0  0  0  0  0  0  0
  2  1  1  6
  1 19  1  0
  1 20  1  0
  1 21  1  0
  2  3  1  0
  2  4  1  0
  2 18  1  0
  3 22  1  0
  3 23  1  0
  3 24  1  0
  4  5  1  0
  4 25  1  0
  4 26  1  0
  5  6  1  0
  5 27  1  0
  5 28  1  0
  6  7  1  0
  6 18  1  0
  7  8  2  0
  9  7  1  6
  9 10  1  0
  9 14  1  0
  9 17  1  0
 10 11  1  6
 10 12  1  0
 10 13  1  0
 14 15  1  0
 14 29  1  0
 14 30  1  0
 15 16  1  0
 15 31  1  0
 15 32  1  0
 16 17  1  0
 16 33  1  0
 17 34  1  0
 17 35  1  0
 18 36  1  0
 18 37  1  0
M  END

