
     RDKit          3D

 62 70  0  0  0  0  0  0  0  0999 V2000
    1.8453    0.6693    0.3342 C   0  0  0  0  0  0  0  0  0  0  0  0
    3.2588    0.2662    0.6461 C   0  0  0  0  0  0  0  0  0  0  0  0
    4.1524    1.1497    1.1651 C   0  0  0  0  0  0  0  0  0  0  0  0
    5.5337    0.8009    1.4938 C   0  0  0  0  0  0  0  0  0  0  0  0
    6.3588    1.5445    1.9542 O   0  0  0  0  0  0  0  0  0  0  0  0
    5.9012   -0.5136    1.2428 O   0  0  0  0  0  0  0  0  0  0  0  0
    5.0468   -1.4295    0.7133 C   0  0  0  0  0  0  0  0  0  0  0  0
    5.5322   -2.7134    0.5191 C   0  0  0  0  0  0  0  0  0  0  0  0
    4.7265   -3.7346   -0.0262 C   0  0  0  0  0  0  0  0  0  0  0  0
    3.3437   -3.4412   -0.2870 C   0  0  0  0  0  0  0  0  0  0  0  0
    2.8847   -2.1221   -0.0834 C   0  0  0  0  0  0  0  0  0  0  0  0
    3.7072   -1.0992    0.3949 C   0  0  0  0  0  0  0  0  0  0  0  0
    2.4130   -4.5434   -0.4780 C   0  0  0  0  0  0  0  0  0  0  0  0
    1.0269   -4.3895   -0.9155 C   0  0  0  0  0  0  0  0  0  0  0  0
    0.6349   -3.3549   -1.8021 C   0  0  0  0  0  0  0  0  0  0  0  0
   -0.6616   -3.2689   -2.2885 C   0  0  0  0  0  0  0  0  0  0  0  0
   -1.6178   -4.2236   -1.9059 C   0  0  0  0  0  0  0  0  0  0  0  0
   -1.2507   -5.2652   -1.0665 C   0  0  0  0  0  0  0  0  0  0  0  0
    0.0644   -5.3805   -0.5637 C   0  0  0  0  0  0  0  0  0  0  0  0
    0.4769   -6.4759    0.3094 C   0  0  0  0  0  0  0  0  0  0  0  0
   -0.4577   -7.2849    0.9960 C   0  0  0  0  0  0  0  0  0  0  0  0
   -0.0487   -8.2851    1.8640 C   0  0  0  0  0  0  0  0  0  0  0  0
    1.3236   -8.4939    2.0861 C   0  0  0  0  0  0  0  0  0  0  0  0
    2.2593   -7.7255    1.4132 C   0  0  0  0  0  0  0  0  0  0  0  0
    1.8685   -6.7193    0.4934 C   0  0  0  0  0  0  0  0  0  0  0  0
    2.8553   -5.8230   -0.1153 C   0  0  0  0  0  0  0  0  0  0  0  0
    4.2742   -6.1314   -0.2854 C   0  0  0  0  0  0  0  0  0  0  0  0
    4.7230   -7.4956   -0.5843 C   0  0  0  0  0  0  0  0  0  0  0  0
    3.8285   -8.5147   -1.0033 C   0  0  0  0  0  0  0  0  0  0  0  0
    4.2490   -9.8175   -1.2064 C   0  0  0  0  0  0  0  0  0  0  0  0
    5.5970  -10.1560   -0.9965 C   0  0  0  0  0  0  0  0  0  0  0  0
    6.5074   -9.1638   -0.6766 C   0  0  0  0  0  0  0  0  0  0  0  0
    6.1106   -7.8128   -0.5153 C   0  0  0  0  0  0  0  0  0  0  0  0
    7.0882   -6.7304   -0.4457 C   0  0  0  0  0  0  0  0  0  0  0  0
    8.4812   -6.9814   -0.4777 C   0  0  0  0  0  0  0  0  0  0  0  0
    9.4007   -5.9650   -0.6742 C   0  0  0  0  0  0  0  0  0  0  0  0
    8.9429   -4.6560   -0.8967 C   0  0  0  0  0  0  0  0  0  0  0  0
    7.5884   -4.3772   -0.8142 C   0  0  0  0  0  0  0  0  0  0  0  0
    6.6311   -5.3795   -0.5046 C   0  0  0  0  0  0  0  0  0  0  0  0
    5.2138   -5.0871   -0.2819 C   0  0  0  0  0  0  0  0  0  0  0  0
    1.6761    1.7305    0.5618 H   0  0  0  0  0  0  0  0  0  0  0  0
    1.1251    0.0728    0.9183 H   0  0  0  0  0  0  0  0  0  0  0  0
    1.6101    0.5010   -0.7296 H   0  0  0  0  0  0  0  0  0  0  0  0
    3.8819    2.1865    1.3719 H   0  0  0  0  0  0  0  0  0  0  0  0
    6.5504   -2.9103    0.8447 H   0  0  0  0  0  0  0  0  0  0  0  0
    1.8294   -1.9054   -0.2269 H   0  0  0  0  0  0  0  0  0  0  0  0
    1.3809   -2.6438   -2.1569 H   0  0  0  0  0  0  0  0  0  0  0  0
   -0.9280   -2.4727   -2.9880 H   0  0  0  0  0  0  0  0  0  0  0  0
   -2.6391   -4.1652   -2.2898 H   0  0  0  0  0  0  0  0  0  0  0  0
   -1.9901   -6.0270   -0.8156 H   0  0  0  0  0  0  0  0  0  0  0  0
   -1.5250   -7.0975    0.8703 H   0  0  0  0  0  0  0  0  0  0  0  0
   -0.7911   -8.8873    2.3934 H   0  0  0  0  0  0  0  0  0  0  0  0
    1.6566   -9.2507    2.8006 H   0  0  0  0  0  0  0  0  0  0  0  0
    3.3186   -7.8786    1.6168 H   0  0  0  0  0  0  0  0  0  0  0  0
    2.7838   -8.2690   -1.1807 H   0  0  0  0  0  0  0  0  0  0  0  0
    3.5327  -10.5756   -1.5319 H   0  0  0  0  0  0  0  0  0  0  0  0
    5.9357  -11.1867   -1.1274 H   0  0  0  0  0  0  0  0  0  0  0  0
    7.5600   -9.4321   -0.5908 H   0  0  0  0  0  0  0  0  0  0  0  0
    8.8480   -8.0026   -0.3773 H   0  0  0  0  0  0  0  0  0  0  0  0
   10.4695   -6.1905   -0.6999 H   0  0  0  0  0  0  0  0  0  0  0  0
    9.6477   -3.8567   -1.1380 H   0  0  0  0  0  0  0  0  0  0  0  0
    7.2555   -3.3627   -1.0211 H   0  0  0  0  0  0  0  0  0  0  0  0
  1  2  1  0
  1 41  1  0
  1 42  1  0
  1 43  1  0
  2  3  2  0
  2 12  1  0
  3  4  1  0
  3 44  1  0
  4  5  2  0
  4  6  1  0
  6  7  1  0
  7  8  1  0
  7 12  2  0
  8  9  2  0
  8 45  1  0
  9 10  1  0
  9 40  1  0
 10 11  2  0
 10 13  1  0
 11 12  1  0
 11 46  1  0
 13 14  2  0
 13 26  1  0
 14 15  1  0
 14 19  1  0
 15 16  2  0
 15 47  1  0
 16 17  1  0
 16 48  1  0
 17 18  2  0
 17 49  1  0
 18 19  1  0
 18 50  1  0
 19 20  2  0
 20 21  1  0
 20 25  1  0
 21 22  2  0
 21 51  1  0
 22 23  1  0
 22 52  1  0
 23 24  2  0
 23 53  1  0
 24 25  1  0
 24 54  1  0
 25 26  2  0
 26 27  1  0
 27 28  1  0
 27 40  2  0
 28 29  2  0
 28 33  1  0
 29 30  1  0
 29 55  1  0
 30 31  2  0
 30 56  1  0
 31 32  1  0
 31 57  1  0
 32 33  2  0
 32 58  1  0
 33 34  1  0
 34 35  1  0
 34 39  2  0
 35 36  2  0
 35 59  1  0
 36 37  1  0
 36 60  1  0
 37 38  2  0
 37 61  1  0
 38 39  1  0
 38 62  1  0
 39 40  1  0
M  END

