
     RDKit          3D

 64 67  0  0  0  0  0  0  0  0999 V2000
    0.6891   -0.4203    1.1052 C   0  0  0  0  0  0  0  0  0  0  0  0
    2.0288    0.0654    0.6568 C   0  0  0  0  0  0  0  0  0  0  0  0
    2.5427    1.3373    0.6045 C   0  0  0  0  0  0  0  0  0  0  0  0
    3.8895    1.2609    0.0996 C   0  0  0  0  0  0  0  0  0  0  0  0
    4.8369    2.3166   -0.1345 C   0  0  0  0  0  0  0  0  0  0  0  0
    4.7271    3.6567    0.0569 C   0  0  0  0  0  0  0  0  0  0  0  0
    3.3446    4.5807    0.6744 S   0  0  0  0  0  0  0  0  0  0  0  0
    4.2465    6.1345    0.5205 C   0  0  0  0  0  0  0  0  0  0  0  0
    3.8063    7.2173    0.8074 O   0  0  0  0  0  0  0  0  0  0  0  0
    5.5050    5.8882   -0.0084 N   0  0  0  0  0  0  0  0  0  0  0  0
    6.4760    6.9498   -0.1149 C   0  0  0  0  0  0  0  0  0  0  0  0
    7.2468    7.1143    1.2140 C   0  0  0  0  0  0  0  0  0  0  0  0
    6.9836    6.3995    2.1649 O   0  0  0  0  0  0  0  0  0  0  0  0
    8.2142    8.0834    1.2500 N   0  0  0  0  0  0  0  0  0  0  0  0
    8.9742    8.2903    2.4833 C   0  0  0  0  0  0  0  0  0  0  0  0
   10.4804    8.1770    2.2272 C   0  0  0  0  0  0  0  0  0  0  0  0
   10.9213    9.1130    1.0946 C   0  0  0  0  0  0  0  0  0  0  0  0
   10.0754    8.8824   -0.1638 C   0  0  0  0  0  0  0  0  0  0  0  0
    8.5762    8.9748    0.1524 C   0  0  0  0  0  0  0  0  0  0  0  0
    5.8597    4.5581   -0.2617 C   0  0  0  0  0  0  0  0  0  0  0  0
    6.9457    4.2368   -0.7031 O   0  0  0  0  0  0  0  0  0  0  0  0
    4.1512   -0.0968   -0.1430 C   0  0  0  0  0  0  0  0  0  0  0  0
    5.3744   -0.7724   -0.6705 C   0  0  0  0  0  0  0  0  0  0  0  0
    3.0206   -0.8062    0.1975 N   0  0  0  0  0  0  0  0  0  0  0  0
    2.8788   -2.2270    0.0977 C   0  0  0  0  0  0  0  0  0  0  0  0
    3.2759   -3.0528    1.1546 C   0  0  0  0  0  0  0  0  0  0  0  0
    3.1330   -4.4388    1.0499 C   0  0  0  0  0  0  0  0  0  0  0  0
    2.5927   -5.0339   -0.1003 C   0  0  0  0  0  0  0  0  0  0  0  0
    2.4429   -6.5468   -0.1982 C   0  0  1  0  0  0  0  0  0  0  0  0
    0.9694   -6.9709   -0.3250 C   0  0  0  0  0  0  0  0  0  0  0  0
    3.2953   -7.1360   -1.3355 C   0  0  0  0  0  0  0  0  0  0  0  0
    2.1974   -4.1884   -1.1516 C   0  0  0  0  0  0  0  0  0  0  0  0
    2.3373   -2.8032   -1.0587 C   0  0  0  0  0  0  0  0  0  0  0  0
    0.0791    0.4335    1.4315 H   0  0  0  0  0  0  0  0  0  0  0  0
    0.7639   -1.1263    1.9495 H   0  0  0  0  0  0  0  0  0  0  0  0
    0.1421   -0.9400    0.3004 H   0  0  0  0  0  0  0  0  0  0  0  0
    2.0053    2.2341    0.9024 H   0  0  0  0  0  0  0  0  0  0  0  0
    5.8165    2.0266   -0.5286 H   0  0  0  0  0  0  0  0  0  0  0  0
    5.9461    7.8791   -0.3684 H   0  0  0  0  0  0  0  0  0  0  0  0
    7.1679    6.6850   -0.9274 H   0  0  0  0  0  0  0  0  0  0  0  0
    8.6247    7.5484    3.2112 H   0  0  0  0  0  0  0  0  0  0  0  0
    8.7378    9.2962    2.8824 H   0  0  0  0  0  0  0  0  0  0  0  0
   10.7197    7.1322    1.9623 H   0  0  0  0  0  0  0  0  0  0  0  0
   11.0272    8.4056    3.1571 H   0  0  0  0  0  0  0  0  0  0  0  0
   11.9915    8.9748    0.8690 H   0  0  0  0  0  0  0  0  0  0  0  0
   10.8046   10.1629    1.4227 H   0  0  0  0  0  0  0  0  0  0  0  0
   10.2895    7.8812   -0.5776 H   0  0  0  0  0  0  0  0  0  0  0  0
   10.3282    9.6170   -0.9465 H   0  0  0  0  0  0  0  0  0  0  0  0
    7.9837    8.7425   -0.7400 H   0  0  0  0  0  0  0  0  0  0  0  0
    8.3257   10.0159    0.4381 H   0  0  0  0  0  0  0  0  0  0  0  0
    6.1564   -0.0358   -0.8947 H   0  0  0  0  0  0  0  0  0  0  0  0
    5.1649   -1.3339   -1.5964 H   0  0  0  0  0  0  0  0  0  0  0  0
    5.7902   -1.4935    0.0532 H   0  0  0  0  0  0  0  0  0  0  0  0
    3.6955   -2.6037    2.0577 H   0  0  0  0  0  0  0  0  0  0  0  0
    3.4482   -5.0722    1.8839 H   0  0  0  0  0  0  0  0  0  0  0  0
    2.8249   -6.9644    0.7494 H   0  0  0  0  0  0  0  0  0  0  0  0
    0.5229   -6.6021   -1.2631 H   0  0  0  0  0  0  0  0  0  0  0  0
    0.3657   -6.5803    0.5091 H   0  0  0  0  0  0  0  0  0  0  0  0
    0.8800   -8.0693   -0.3252 H   0  0  0  0  0  0  0  0  0  0  0  0
    2.9578   -6.7752   -2.3211 H   0  0  0  0  0  0  0  0  0  0  0  0
    3.2250   -8.2358   -1.3437 H   0  0  0  0  0  0  0  0  0  0  0  0
    4.3565   -6.8634   -1.2248 H   0  0  0  0  0  0  0  0  0  0  0  0
    1.7721   -4.6147   -2.0638 H   0  0  0  0  0  0  0  0  0  0  0  0
    2.0282   -2.1570   -1.8835 H   0  0  0  0  0  0  0  0  0  0  0  0
  1  2  1  0
  1 34  1  0
  1 35  1  0
  1 36  1  0
  2  3  2  0
  2 24  1  0
  3  4  1  0
  3 37  1  0
  4  5  1  0
  4 22  2  0
  5  6  2  0
  5 38  1  0
  6  7  1  0
  6 20  1  0
  7  8  2  0
  8  9  1  0
  8 10  1  0
 10 11  1  0
 10 20  1  0
 11 12  1  0
 11 39  1  0
 11 40  1  0
 12 13  2  0
 12 14  1  0
 14 15  1  0
 14 19  1  0
 15 16  1  0
 15 41  1  0
 15 42  1  0
 16 17  1  0
 16 43  1  0
 16 44  1  0
 17 18  1  0
 17 45  1  0
 17 46  1  0
 18 19  1  0
 18 47  1  0
 18 48  1  0
 19 49  1  0
 19 50  1  0
 20 21  2  0
 22 23  1  0
 22 24  1  0
 23 51  1  0
 23 52  1  0
 23 53  1  0
 24 25  1  0
 25 26  2  0
 25 33  1  0
 26 27  1  0
 26 54  1  0
 27 28  2  0
 27 55  1  0
 28 29  1  0
 28 32  1  0
 29 30  1  0
 29 31  1  0
 29 56  1  1
 30 57  1  0
 30 58  1  0
 30 59  1  0
 31 60  1  0
 31 61  1  0
 31 62  1  0
 32 33  2  0
 32 63  1  0
 33 64  1  0
M  CHG  2   7   1   9  -1
M  END

