
     RDKit          3D

 31 31  0  0  0  0  0  0  0  0999 V2000
    2.7266    1.4889   -1.4749 C   0  0  0  0  0  0  0  0  0  0  0  0
    2.4325    0.3352   -0.5078 C   0  0  1  0  0  0  0  0  0  0  0  0
    0.9221    0.1170   -0.3506 C   0  0  0  0  0  0  0  0  0  0  0  0
    3.1093   -0.9833   -0.9304 C   0  0  0  0  0  0  0  0  0  0  0  0
    4.6245   -0.9633   -1.1296 C   0  0  1  0  0  0  0  0  0  0  0  0
    5.4198   -0.3061    0.3985 Cl  0  0  0  0  0  0  0  0  0  0  0  0
    5.2500   -2.3389   -1.4545 C   0  0  1  0  0  0  0  0  0  0  0  0
    4.6208   -3.0294   -2.6895 C   0  0  0  0  0  0  0  0  0  0  0  0
    5.0810   -2.3965   -4.0050 C   0  0  0  0  0  0  0  0  0  0  0  0
    6.4884   -2.3899   -4.1201 O   0  0  0  0  0  0  0  0  0  0  0  0
    7.1200   -1.6889   -3.0653 C   0  0  0  0  0  0  0  0  0  0  0  0
    6.7753   -2.2752   -1.6952 C   0  0  0  0  0  0  0  0  0  0  0  0
    2.1857    2.3999   -1.1723 H   0  0  0  0  0  0  0  0  0  0  0  0
    2.4086    1.2426   -2.5035 H   0  0  0  0  0  0  0  0  0  0  0  0
    3.7980    1.7419   -1.4993 H   0  0  0  0  0  0  0  0  0  0  0  0
    2.8395    0.6121    0.4793 H   0  0  0  0  0  0  0  0  0  0  0  0
    0.4536   -0.1523   -1.3134 H   0  0  0  0  0  0  0  0  0  0  0  0
    0.4250    1.0295    0.0157 H   0  0  0  0  0  0  0  0  0  0  0  0
    0.7026   -0.6931    0.3640 H   0  0  0  0  0  0  0  0  0  0  0  0
    2.6582   -1.3025   -1.8868 H   0  0  0  0  0  0  0  0  0  0  0  0
    2.8631   -1.7688   -0.1943 H   0  0  0  0  0  0  0  0  0  0  0  0
    4.8924   -0.2236   -1.8958 H   0  0  0  0  0  0  0  0  0  0  0  0
    5.0618   -2.9733   -0.5716 H   0  0  0  0  0  0  0  0  0  0  0  0
    3.5213   -3.0478   -2.6422 H   0  0  0  0  0  0  0  0  0  0  0  0
    4.9503   -4.0820   -2.6868 H   0  0  0  0  0  0  0  0  0  0  0  0
    4.6835   -1.3626   -4.1012 H   0  0  0  0  0  0  0  0  0  0  0  0
    4.6987   -2.9700   -4.8637 H   0  0  0  0  0  0  0  0  0  0  0  0
    6.8477   -0.6123   -3.1083 H   0  0  0  0  0  0  0  0  0  0  0  0
    8.2030   -1.7534   -3.2520 H   0  0  0  0  0  0  0  0  0  0  0  0
    7.2696   -1.6955   -0.9019 H   0  0  0  0  0  0  0  0  0  0  0  0
    7.1765   -3.3015   -1.6482 H   0  0  0  0  0  0  0  0  0  0  0  0
  1  2  1  0
  1 13  1  0
  1 14  1  0
  1 15  1  0
  2  3  1  0
  2  4  1  0
  2 16  1  1
  3 17  1  0
  3 18  1  0
  3 19  1  0
  4  5  1  0
  4 20  1  0
  4 21  1  0
  5  6  1  0
  5  7  1  0
  5 22  1  6
  7  8  1  0
  7 12  1  0
  7 23  1  1
  8  9  1  0
  8 24  1  0
  8 25  1  0
  9 10  1  0
  9 26  1  0
  9 27  1  0
 10 11  1  0
 11 12  1  0
 11 28  1  0
 11 29  1  0
 12 30  1  0
 12 31  1  0
M  END

