
     RDKit          3D

 42 43  0  0  0  0  0  0  0  0999 V2000
    1.1927   -0.2093    0.2030 C   0  0  0  0  0  0  0  0  0  0  0  0
    2.6701   -0.0601   -0.1688 C   0  0  1  0  0  0  0  0  0  0  0  0
    2.9017   -0.5658   -1.6027 C   0  0  0  0  0  0  0  0  0  0  0  0
    4.3073   -0.5980   -1.9488 N   0  0  0  0  0  0  0  0  0  0  0  0
    4.8527    0.0896   -2.9821 C   0  0  0  0  0  0  0  0  0  0  0  0
    4.1864    0.7814   -3.7496 O   0  0  0  0  0  0  0  0  0  0  0  0
    6.3797   -0.0300   -3.1033 C   0  0  1  0  0  0  0  0  0  0  0  0
    6.8210   -0.2728   -4.5388 C   0  0  0  0  0  0  0  0  0  0  0  0
    6.3799    0.5775   -5.5119 N   0  0  0  0  0  0  0  0  0  0  0  0
    7.6564   -1.2424   -4.7057 N   0  0  0  0  0  0  0  0  0  0  0  0
    8.0167   -1.3363   -6.0688 O   0  0  0  0  0  0  0  0  0  0  0  0
    7.0777    1.1868   -2.4860 C   0  0  0  0  0  0  0  0  0  0  0  0
    8.2223    0.9885   -1.6982 C   0  0  0  0  0  0  0  0  0  0  0  0
    8.9050    2.0739   -1.1422 C   0  0  0  0  0  0  0  0  0  0  0  0
    8.4531    3.3769   -1.3692 C   0  0  0  0  0  0  0  0  0  0  0  0
    7.3160    3.5841   -2.1557 C   0  0  0  0  0  0  0  0  0  0  0  0
    6.6327    2.4990   -2.7119 C   0  0  0  0  0  0  0  0  0  0  0  0
    3.2012    1.3874    0.0711 C   0  0  0  0  0  0  0  0  0  0  0  0
    4.4016    1.2093    1.0173 C   0  0  0  0  0  0  0  0  0  0  0  0
    4.0735   -0.1197    1.6990 C   0  0  0  0  0  0  0  0  0  0  0  0
    3.4703   -0.9069    0.6835 O   0  0  0  0  0  0  0  0  0  0  0  0
    0.5589    0.4298   -0.4331 H   0  0  0  0  0  0  0  0  0  0  0  0
    1.0257    0.0836    1.2510 H   0  0  0  0  0  0  0  0  0  0  0  0
    0.8663   -1.2540    0.0853 H   0  0  0  0  0  0  0  0  0  0  0  0
    2.3938    0.0796   -2.3320 H   0  0  0  0  0  0  0  0  0  0  0  0
    2.4766   -1.5810   -1.6888 H   0  0  0  0  0  0  0  0  0  0  0  0
    4.9080   -1.1230   -1.3237 H   0  0  0  0  0  0  0  0  0  0  0  0
    6.7153   -0.9217   -2.5574 H   0  0  0  0  0  0  0  0  0  0  0  0
    5.4615    0.9818   -5.3391 H   0  0  0  0  0  0  0  0  0  0  0  0
    6.5947    0.2865   -6.4596 H   0  0  0  0  0  0  0  0  0  0  0  0
    8.6100   -2.0961   -6.0757 H   0  0  0  0  0  0  0  0  0  0  0  0
    8.5890   -0.0278   -1.5300 H   0  0  0  0  0  0  0  0  0  0  0  0
    9.7949    1.8994   -0.5316 H   0  0  0  0  0  0  0  0  0  0  0  0
    8.9859    4.2276   -0.9364 H   0  0  0  0  0  0  0  0  0  0  0  0
    6.9567    4.5998   -2.3412 H   0  0  0  0  0  0  0  0  0  0  0  0
    5.7452    2.6684   -3.3237 H   0  0  0  0  0  0  0  0  0  0  0  0
    2.4174    1.9994    0.5441 H   0  0  0  0  0  0  0  0  0  0  0  0
    3.4786    1.8845   -0.8695 H   0  0  0  0  0  0  0  0  0  0  0  0
    4.5213    2.0410    1.7279 H   0  0  0  0  0  0  0  0  0  0  0  0
    5.3373    1.1197    0.4437 H   0  0  0  0  0  0  0  0  0  0  0  0
    3.3770    0.0302    2.5494 H   0  0  0  0  0  0  0  0  0  0  0  0
    4.9533   -0.6629    2.0773 H   0  0  0  0  0  0  0  0  0  0  0  0
  2  1  1  1
  1 22  1  0
  1 23  1  0
  1 24  1  0
  2  3  1  0
  2 18  1  0
  2 21  1  0
  3  4  1  0
  3 25  1  0
  3 26  1  0
  4  5  1  0
  4 27  1  0
  5  6  2  0
  5  7  1  0
  7  8  1  0
  7 12  1  0
  7 28  1  1
  8  9  1  0
  8 10  2  0
  9 29  1  0
  9 30  1  0
 10 11  1  0
 11 31  1  0
 12 13  2  0
 12 17  1  0
 13 14  1  0
 13 32  1  0
 14 15  2  0
 14 33  1  0
 15 16  1  0
 15 34  1  0
 16 17  2  0
 16 35  1  0
 17 36  1  0
 18 19  1  0
 18 37  1  0
 18 38  1  0
 19 20  1  0
 19 39  1  0
 19 40  1  0
 20 21  1  0
 20 41  1  0
 20 42  1  0
M  END

