
     RDKit          3D

 45 47  0  0  0  0  0  0  0  0999 V2000
    1.3626   -0.4849    0.8137 C   0  0  0  0  0  0  0  0  0  0  0  0
    2.7427   -0.1595    0.3004 C   0  0  0  0  0  0  0  0  0  0  0  0
    3.3981    1.0176    0.6675 C   0  0  0  0  0  0  0  0  0  0  0  0
    4.6952    1.2951    0.2066 C   0  0  0  0  0  0  0  0  0  0  0  0
    5.3788    2.5342    0.5969 C   0  0  0  0  0  0  0  0  0  0  0  0
    4.8368    3.4511    1.3710 N   0  0  0  0  0  0  0  0  0  0  0  0
    5.8143    4.4280    1.4729 O   0  0  0  0  0  0  0  0  0  0  0  0
    6.8471    4.0003    0.7473 C   0  0  0  0  0  0  0  0  0  0  0  0
    8.0883    4.8661    0.7143 C   0  0  1  0  0  0  0  0  0  0  0  0
    7.7651    6.1384    0.4635 F   0  0  0  0  0  0  0  0  0  0  0  0
    8.7154    4.8224    1.8964 F   0  0  0  0  0  0  0  0  0  0  0  0
    8.9246    4.4401   -0.2264 F   0  0  0  0  0  0  0  0  0  0  0  0
    6.6606    2.8556    0.1844 N   0  0  0  0  0  0  0  0  0  0  0  0
    5.3496    0.3728   -0.6209 C   0  0  0  0  0  0  0  0  0  0  0  0
    4.7253   -0.8176   -1.0109 C   0  0  0  0  0  0  0  0  0  0  0  0
    5.4378   -1.8241   -1.8794 C   0  0  0  0  0  0  0  0  0  0  0  0
    3.4167   -1.0591   -0.5517 C   0  0  0  0  0  0  0  0  0  0  0  0
    2.7928   -2.2439   -0.8804 O   0  0  0  0  0  0  0  0  0  0  0  0
    2.0662   -2.2700   -2.0990 C   0  0  0  0  0  0  0  0  0  0  0  0
    1.4438   -3.6517   -2.2051 C   0  0  0  0  0  0  0  0  0  0  0  0
    0.7245   -3.6875   -3.4249 O   0  0  0  0  0  0  0  0  0  0  0  0
    0.0669   -4.8074   -3.7810 C   0  0  0  0  0  0  0  0  0  0  0  0
    0.0152   -5.9953   -3.0379 C   0  0  0  0  0  0  0  0  0  0  0  0
   -0.7018   -7.0970   -3.5100 C   0  0  0  0  0  0  0  0  0  0  0  0
   -1.3822   -7.0331   -4.7357 C   0  0  0  0  0  0  0  0  0  0  0  0
   -2.1187   -8.1650   -5.2205 C   0  0  0  0  0  0  0  0  0  0  0  0
   -2.7143   -9.0823   -5.6112 N   0  0  0  0  0  0  0  0  0  0  0  0
   -1.3363   -5.8420   -5.4912 C   0  0  0  0  0  0  0  0  0  0  0  0
   -0.6233   -4.7588   -5.0131 C   0  0  0  0  0  0  0  0  0  0  0  0
   -0.5745   -3.6284   -5.7214 F   0  0  0  0  0  0  0  0  0  0  0  0
    1.0403    0.2476    1.5671 H   0  0  0  0  0  0  0  0  0  0  0  0
    1.3358   -1.4880    1.2671 H   0  0  0  0  0  0  0  0  0  0  0  0
    0.6129   -0.4809    0.0047 H   0  0  0  0  0  0  0  0  0  0  0  0
    2.9009    1.7318    1.3272 H   0  0  0  0  0  0  0  0  0  0  0  0
    6.3656    0.5899   -0.9562 H   0  0  0  0  0  0  0  0  0  0  0  0
    6.5234   -1.6515   -1.8708 H   0  0  0  0  0  0  0  0  0  0  0  0
    5.1064   -1.7650   -2.9306 H   0  0  0  0  0  0  0  0  0  0  0  0
    5.2423   -2.8510   -1.5360 H   0  0  0  0  0  0  0  0  0  0  0  0
    2.7240   -2.0893   -2.9674 H   0  0  0  0  0  0  0  0  0  0  0  0
    1.2748   -1.4994   -2.1126 H   0  0  0  0  0  0  0  0  0  0  0  0
    0.7743   -3.8305   -1.3447 H   0  0  0  0  0  0  0  0  0  0  0  0
    2.2351   -4.4225   -2.1891 H   0  0  0  0  0  0  0  0  0  0  0  0
    0.5358   -6.0681   -2.0832 H   0  0  0  0  0  0  0  0  0  0  0  0
   -0.7336   -8.0152   -2.9214 H   0  0  0  0  0  0  0  0  0  0  0  0
   -1.8526   -5.7555   -6.4482 H   0  0  0  0  0  0  0  0  0  0  0  0
  1  2  1  0
  1 31  1  0
  1 32  1  0
  1 33  1  0
  2  3  2  0
  2 17  1  0
  3  4  1  0
  3 34  1  0
  4  5  1  0
  4 14  2  0
  5  6  2  0
  5 13  1  0
  6  7  1  0
  7  8  1  0
  8  9  1  0
  8 13  2  0
  9 10  1  6
  9 11  1  0
  9 12  1  0
 14 15  1  0
 14 35  1  0
 15 16  1  0
 15 17  2  0
 16 36  1  0
 16 37  1  0
 16 38  1  0
 17 18  1  0
 18 19  1  0
 19 20  1  0
 19 39  1  0
 19 40  1  0
 20 21  1  0
 20 41  1  0
 20 42  1  0
 21 22  1  0
 22 23  2  0
 22 29  1  0
 23 24  1  0
 23 43  1  0
 24 25  2  0
 24 44  1  0
 25 26  1  0
 25 28  1  0
 26 27  3  0
 28 29  2  0
 28 45  1  0
 29 30  1  0
M  END

