
     RDKit          3D

 23 24  0  0  0  0  0  0  0  0999 V2000
    0.9515    0.2765    0.1324 C   0  0  0  0  0  0  0  0  0  0  0  0
    2.4498    0.1158    0.0709 C   0  0  0  0  0  0  0  0  0  0  0  0
    3.2756    1.2533    0.0609 C   0  0  0  0  0  0  0  0  0  0  0  0
    4.6004    1.2289    0.0433 N   0  0  0  0  0  0  0  0  0  0  0  0
    5.1629    0.0056    0.0567 C   0  0  0  0  0  0  0  0  0  0  0  0
    6.5198   -0.0544    0.0654 N   0  0  0  0  0  0  0  0  0  0  0  0
    4.4914   -1.1537    0.0698 N   0  0  0  0  0  0  0  0  0  0  0  0
    3.1528   -1.1119    0.0611 C   0  0  0  0  0  0  0  0  0  0  0  0
    2.4962   -2.4484    0.0853 C   0  0  0  0  0  0  0  0  0  0  0  0
    3.0979   -3.5165    0.7772 C   0  0  0  0  0  0  0  0  0  0  0  0
    2.5677   -4.7364    0.8225 N   0  0  0  0  0  0  0  0  0  0  0  0
    1.4242   -4.9134    0.1549 C   0  0  0  0  0  0  0  0  0  0  0  0
    0.7751   -3.9951   -0.5597 N   0  0  0  0  0  0  0  0  0  0  0  0
    1.3108   -2.7729   -0.5914 C   0  0  0  0  0  0  0  0  0  0  0  0
    0.6934    1.2774    0.5114 H   0  0  0  0  0  0  0  0  0  0  0  0
    0.4802   -0.4630    0.7978 H   0  0  0  0  0  0  0  0  0  0  0  0
    0.4719    0.1777   -0.8564 H   0  0  0  0  0  0  0  0  0  0  0  0
    2.8105    2.2483    0.0763 H   0  0  0  0  0  0  0  0  0  0  0  0
    7.0494    0.8024   -0.0069 H   0  0  0  0  0  0  0  0  0  0  0  0
    6.9771   -0.9526    0.0035 H   0  0  0  0  0  0  0  0  0  0  0  0
    4.0429   -3.3506    1.3042 H   0  0  0  0  0  0  0  0  0  0  0  0
    0.9796   -5.9156    0.1934 H   0  0  0  0  0  0  0  0  0  0  0  0
    0.7898   -2.0323   -1.2054 H   0  0  0  0  0  0  0  0  0  0  0  0
  1  2  1  0
  1 15  1  0
  1 16  1  0
  1 17  1  0
  2  3  2  0
  2  8  1  0
  3  4  1  0
  3 18  1  0
  4  5  2  0
  5  6  1  0
  5  7  1  0
  6 19  1  0
  6 20  1  0
  7  8  2  0
  8  9  1  0
  9 10  2  0
  9 14  1  0
 10 11  1  0
 10 21  1  0
 11 12  2  0
 12 13  1  0
 12 22  1  0
 13 14  2  0
 14 23  1  0
M  END

