
     RDKit          3D

 68 71  0  0  0  0  0  0  0  0999 V2000
   14.7084  -16.9883    2.6429 C   0  0  0  0  0  0  0  0  0  0  0  0
   14.0765  -15.7779    1.9856 C   0  0  0  0  0  0  0  0  0  0  0  0
   14.5347  -15.7206    0.6321 O   0  0  0  0  0  0  0  0  0  0  0  0
   14.1010  -14.6844   -0.1382 C   0  0  0  0  0  0  0  0  0  0  0  0
   13.2524  -14.9244   -1.1947 C   0  0  0  0  0  0  0  0  0  0  0  0
   12.8237  -13.8875   -2.0704 C   0  0  0  0  0  0  0  0  0  0  0  0
   12.0078  -14.2162   -3.1080 N   0  0  0  0  0  0  0  0  0  0  0  0
   11.6215  -13.2392   -3.9016 C   0  0  0  0  0  0  0  0  0  0  0  0
   11.9735  -11.8822   -3.7396 C   0  0  0  0  0  0  0  0  0  0  0  0
   12.8004  -11.5099   -2.6827 C   0  0  0  0  0  0  0  0  0  0  0  0
   13.1476  -10.1949   -2.4019 N   0  0  0  0  0  0  0  0  0  0  0  0
   13.1164   -9.0689   -3.2405 C   0  0  0  0  0  0  0  0  0  0  0  0
   13.4122   -9.1924   -4.6103 C   0  0  0  0  0  0  0  0  0  0  0  0
   13.4338   -8.0666   -5.4269 C   0  0  0  0  0  0  0  0  0  0  0  0
   13.1882   -6.8063   -4.8819 C   0  0  0  0  0  0  0  0  0  0  0  0
   12.9094   -6.6567   -3.5153 C   0  0  0  0  0  0  0  0  0  0  0  0
   12.6813   -5.2462   -2.9916 C   0  0  0  0  0  0  0  0  0  0  0  0
   11.2938   -4.9076   -2.7283 N   0  0  0  0  0  0  0  0  0  0  0  0
   10.8345   -4.4878   -1.5253 C   0  0  0  0  0  0  0  0  0  0  0  0
   11.4961   -4.4599   -0.4948 O   0  0  0  0  0  0  0  0  0  0  0  0
    9.3673   -4.0086   -1.5305 C   0  0  2  0  0  0  0  0  0  0  0  0
    9.4209   -2.9783   -1.1362 H   0  0  0  0  0  0  0  0  0  0  0  0
    8.4659   -4.8738   -0.6141 C   0  0  0  0  0  0  0  0  0  0  0  0
    7.6727   -5.7422   -1.6015 C   0  0  0  0  0  0  0  0  0  0  0  0
    7.4618   -4.7918   -2.7820 C   0  0  0  0  0  0  0  0  0  0  0  0
    8.7385   -4.0685   -2.8625 N   0  0  0  0  0  0  0  0  0  0  0  0
   12.8553   -7.7921   -2.6739 C   0  0  0  0  0  0  0  0  0  0  0  0
   12.5115   -7.6793   -1.1990 C   0  0  0  0  0  0  0  0  0  0  0  0
   11.0918   -8.1602   -0.8527 C   0  0  0  0  0  0  0  0  0  0  0  0
   13.2774  -12.5543   -1.8149 C   0  0  0  0  0  0  0  0  0  0  0  0
   14.1816  -12.3229   -0.7393 C   0  0  0  0  0  0  0  0  0  0  0  0
   14.5936  -13.3520    0.0902 C   0  0  0  0  0  0  0  0  0  0  0  0
   15.4590  -13.2301    1.1283 O   0  0  0  0  0  0  0  0  0  0  0  0
   16.0994  -11.9910    1.4094 C   0  0  0  0  0  0  0  0  0  0  0  0
   17.3087  -11.7344    0.5197 C   0  0  0  0  0  0  0  0  0  0  0  0
   14.3678  -17.0783    3.6865 H   0  0  0  0  0  0  0  0  0  0  0  0
   15.8057  -16.8992    2.6400 H   0  0  0  0  0  0  0  0  0  0  0  0
   14.4374  -17.9103    2.1057 H   0  0  0  0  0  0  0  0  0  0  0  0
   14.3527  -14.8530    2.5187 H   0  0  0  0  0  0  0  0  0  0  0  0
   12.9725  -15.8575    1.9911 H   0  0  0  0  0  0  0  0  0  0  0  0
   12.9016  -15.9396   -1.3835 H   0  0  0  0  0  0  0  0  0  0  0  0
   10.9624  -13.5134   -4.7357 H   0  0  0  0  0  0  0  0  0  0  0  0
   11.5651  -11.1364   -4.4211 H   0  0  0  0  0  0  0  0  0  0  0  0
   13.3173   -9.9985   -1.4245 H   0  0  0  0  0  0  0  0  0  0  0  0
   13.6486  -10.1733   -5.0236 H   0  0  0  0  0  0  0  0  0  0  0  0
   13.6661   -8.1720   -6.4896 H   0  0  0  0  0  0  0  0  0  0  0  0
   13.2268   -5.9196   -5.5205 H   0  0  0  0  0  0  0  0  0  0  0  0
   13.0902   -4.5375   -3.7322 H   0  0  0  0  0  0  0  0  0  0  0  0
   13.2228   -5.0722   -2.0512 H   0  0  0  0  0  0  0  0  0  0  0  0
   10.6028   -4.8770   -3.4775 H   0  0  0  0  0  0  0  0  0  0  0  0
    7.7781   -4.2239   -0.0499 H   0  0  0  0  0  0  0  0  0  0  0  0
    9.0552   -5.4419    0.1187 H   0  0  0  0  0  0  0  0  0  0  0  0
    6.7273   -6.1212   -1.1857 H   0  0  0  0  0  0  0  0  0  0  0  0
    8.2692   -6.6126   -1.9204 H   0  0  0  0  0  0  0  0  0  0  0  0
    6.6049   -4.1181   -2.5746 H   0  0  0  0  0  0  0  0  0  0  0  0
    7.2432   -5.3192   -3.7255 H   0  0  0  0  0  0  0  0  0  0  0  0
    8.6459   -3.1531   -3.2941 H   0  0  0  0  0  0  0  0  0  0  0  0
   12.6097   -6.6406   -0.8578 H   0  0  0  0  0  0  0  0  0  0  0  0
   13.2464   -8.2452   -0.5942 H   0  0  0  0  0  0  0  0  0  0  0  0
   10.3448   -7.5579   -1.3907 H   0  0  0  0  0  0  0  0  0  0  0  0
   10.8980   -8.0528    0.2263 H   0  0  0  0  0  0  0  0  0  0  0  0
   10.9284   -9.2136   -1.1271 H   0  0  0  0  0  0  0  0  0  0  0  0
   14.5968  -11.3257   -0.6001 H   0  0  0  0  0  0  0  0  0  0  0  0
   16.4145  -12.0731    2.4607 H   0  0  0  0  0  0  0  0  0  0  0  0
   15.3716  -11.1615    1.3547 H   0  0  0  0  0  0  0  0  0  0  0  0
   18.0288  -12.5623    0.6068 H   0  0  0  0  0  0  0  0  0  0  0  0
   17.8118  -10.8039    0.8284 H   0  0  0  0  0  0  0  0  0  0  0  0
   17.0291  -11.6362   -0.5399 H   0  0  0  0  0  0  0  0  0  0  0  0
  1  2  1  0
  1 36  1  0
  1 37  1  0
  1 38  1  0
  2  3  1  0
  2 39  1  0
  2 40  1  0
  3  4  1  0
  4  5  2  0
  4 32  1  0
  5  6  1  0
  5 41  1  0
  6  7  2  0
  6 30  1  0
  7  8  1  0
  8  9  2  0
  8 42  1  0
  9 10  1  0
  9 43  1  0
 10 11  1  0
 10 30  2  0
 11 12  1  0
 11 44  1  0
 12 13  2  0
 12 27  1  0
 13 14  1  0
 13 45  1  0
 14 15  2  0
 14 46  1  0
 15 16  1  0
 15 47  1  0
 16 17  1  0
 16 27  2  0
 17 18  1  0
 17 48  1  0
 17 49  1  0
 18 19  1  0
 18 50  1  0
 19 20  2  0
 19 21  1  0
 21 22  1  1
 21 23  1  0
 21 26  1  0
 23 24  1  0
 23 51  1  0
 23 52  1  0
 24 25  1  0
 24 53  1  0
 24 54  1  0
 25 26  1  0
 25 55  1  0
 25 56  1  0
 26 57  1  0
 27 28  1  0
 28 29  1  0
 28 58  1  0
 28 59  1  0
 29 60  1  0
 29 61  1  0
 29 62  1  0
 30 31  1  0
 31 32  2  0
 31 63  1  0
 32 33  1  0
 33 34  1  0
 34 35  1  0
 34 64  1  0
 34 65  1  0
 35 66  1  0
 35 67  1  0
 35 68  1  0
M  END

