
     RDKit          3D

 97103  0  0  0  0  0  0  0  0999 V2000
    2.4555    2.4123   -4.1430 C   0  0  0  0  0  0  0  0  0  0  0  0
    2.4628    3.2653   -2.8688 C   0  0  0  0  0  0  0  0  0  0  0  0
    3.0762    2.6262   -1.7098 N   0  0  0  0  0  0  0  0  0  0  0  0
    2.2729    1.7308   -0.8750 C   0  0  0  0  0  0  0  0  0  0  0  0
    0.7736    2.0133   -0.8537 C   0  0  0  0  0  0  0  0  0  0  0  0
    4.4612    2.5524   -1.6120 C   0  0  0  0  0  0  0  0  0  0  0  0
    5.3177    3.3273   -2.4388 C   0  0  0  0  0  0  0  0  0  0  0  0
    6.6993    3.2768   -2.3032 C   0  0  0  0  0  0  0  0  0  0  0  0
    7.3277    2.4308   -1.3711 C   0  0  0  0  0  0  0  0  0  0  0  0
    8.8039    2.4442   -1.2275 C   0  0  0  0  0  0  0  0  0  0  0  0
    9.3826    3.6549   -1.3599 N   0  0  0  0  0  0  0  0  0  0  0  0
   10.6759    3.7187   -1.1154 C   0  0  0  0  0  0  0  0  0  0  0  0
   11.4505    2.6004   -0.6928 C   0  0  0  0  0  0  0  0  0  0  0  0
   10.9021    1.3964   -0.6140 N   0  0  0  0  0  0  0  0  0  0  0  0
    9.5980    1.2849   -0.9186 C   0  0  0  0  0  0  0  0  0  0  0  0
    9.0873   -0.1160   -0.9617 C   0  0  0  0  0  0  0  0  0  0  0  0
    9.5098   -1.0396    0.0128 C   0  0  0  0  0  0  0  0  0  0  0  0
    9.1056   -2.3715   -0.0457 C   0  0  0  0  0  0  0  0  0  0  0  0
    8.2556   -2.8485   -1.0689 C   0  0  0  0  0  0  0  0  0  0  0  0
    7.7928   -4.3485   -1.1250 B   0  0  0  0  0  0  0  0  0  0  0  0
    6.4185   -4.7047   -1.8382 C   0  0  0  0  0  0  0  0  0  0  0  0
    6.3596   -5.6571   -2.8927 C   0  0  0  0  0  0  0  0  0  0  0  0
    7.5912   -6.3851   -3.3894 C   0  0  0  0  0  0  0  0  0  0  0  0
    5.1374   -5.9384   -3.5211 C   0  0  0  0  0  0  0  0  0  0  0  0
    3.9414   -5.3310   -3.1278 C   0  0  0  0  0  0  0  0  0  0  0  0
    2.6317   -5.6497   -3.8068 C   0  0  0  0  0  0  0  0  0  0  0  0
    3.9997   -4.4090   -2.0763 C   0  0  0  0  0  0  0  0  0  0  0  0
    5.2032   -4.0765   -1.4417 C   0  0  0  0  0  0  0  0  0  0  0  0
    5.1385   -3.0535   -0.3235 C   0  0  0  0  0  0  0  0  0  0  0  0
    8.7112   -5.4640   -0.4665 C   0  0  0  0  0  0  0  0  0  0  0  0
    8.2016   -6.3497    0.5224 C   0  0  0  0  0  0  0  0  0  0  0  0
    6.7643   -6.2860    0.9958 C   0  0  0  0  0  0  0  0  0  0  0  0
    9.0394   -7.3117    1.1060 C   0  0  0  0  0  0  0  0  0  0  0  0
   10.3770   -7.4603    0.7284 C   0  0  0  0  0  0  0  0  0  0  0  0
   11.2650   -8.5069    1.3560 C   0  0  0  0  0  0  0  0  0  0  0  0
   10.8699   -6.5999   -0.2598 C   0  0  0  0  0  0  0  0  0  0  0  0
   10.0767   -5.6063   -0.8470 C   0  0  0  0  0  0  0  0  0  0  0  0
   10.7270   -4.7283   -1.8990 C   0  0  0  0  0  0  0  0  0  0  0  0
    7.8494   -1.9096   -2.0438 C   0  0  0  0  0  0  0  0  0  0  0  0
    8.2611   -0.5794   -2.0028 C   0  0  0  0  0  0  0  0  0  0  0  0
   12.7953    3.0847   -0.4691 C   0  0  0  0  0  0  0  0  0  0  0  0
   13.9925    2.4893   -0.0534 C   0  0  0  0  0  0  0  0  0  0  0  0
   15.1371    3.2800    0.0483 C   0  0  0  0  0  0  0  0  0  0  0  0
   15.0917    4.6526   -0.2626 C   0  0  0  0  0  0  0  0  0  0  0  0
   13.9105    5.2692   -0.6824 C   0  0  0  0  0  0  0  0  0  0  0  0
   12.7624    4.4754   -0.7838 C   0  0  0  0  0  0  0  0  0  0  0  0
   11.4762    4.8414   -1.1754 N   0  0  0  0  0  0  0  0  0  0  0  0
   11.0359    6.1665   -1.5465 C   0  0  0  0  0  0  0  0  0  0  0  0
    6.4868    1.6578   -0.5534 C   0  0  0  0  0  0  0  0  0  0  0  0
    5.1003    1.7093   -0.6655 C   0  0  0  0  0  0  0  0  0  0  0  0
    1.9843    2.9621   -4.9742 H   0  0  0  0  0  0  0  0  0  0  0  0
    1.8908    1.4776   -3.9944 H   0  0  0  0  0  0  0  0  0  0  0  0
    3.4773    2.1409   -4.4502 H   0  0  0  0  0  0  0  0  0  0  0  0
    1.4338    3.5434   -2.6066 H   0  0  0  0  0  0  0  0  0  0  0  0
    2.9714    4.2222   -3.0581 H   0  0  0  0  0  0  0  0  0  0  0  0
    2.6388    1.8184    0.1606 H   0  0  0  0  0  0  0  0  0  0  0  0
    2.4376    0.6719   -1.1648 H   0  0  0  0  0  0  0  0  0  0  0  0
    0.5566    3.0474   -0.5427 H   0  0  0  0  0  0  0  0  0  0  0  0
    0.3009    1.3401   -0.1218 H   0  0  0  0  0  0  0  0  0  0  0  0
    0.2853    1.8320   -1.8232 H   0  0  0  0  0  0  0  0  0  0  0  0
    4.9043    3.9886   -3.1987 H   0  0  0  0  0  0  0  0  0  0  0  0
    7.3208    3.9062   -2.9432 H   0  0  0  0  0  0  0  0  0  0  0  0
   10.1728   -0.6955    0.8089 H   0  0  0  0  0  0  0  0  0  0  0  0
    9.4532   -3.0661    0.7243 H   0  0  0  0  0  0  0  0  0  0  0  0
    8.3856   -5.6893   -3.7031 H   0  0  0  0  0  0  0  0  0  0  0  0
    7.3495   -7.0174   -4.2564 H   0  0  0  0  0  0  0  0  0  0  0  0
    8.0251   -7.0300   -2.6101 H   0  0  0  0  0  0  0  0  0  0  0  0
    5.1206   -6.6643   -4.3400 H   0  0  0  0  0  0  0  0  0  0  0  0
    2.7425   -6.4605   -4.5421 H   0  0  0  0  0  0  0  0  0  0  0  0
    2.2319   -4.7688   -4.3381 H   0  0  0  0  0  0  0  0  0  0  0  0
    1.8646   -5.9570   -3.0767 H   0  0  0  0  0  0  0  0  0  0  0  0
    3.0748   -3.9307   -1.7367 H   0  0  0  0  0  0  0  0  0  0  0  0
    4.1323   -3.0308    0.1227 H   0  0  0  0  0  0  0  0  0  0  0  0
    5.3598   -2.0392   -0.6941 H   0  0  0  0  0  0  0  0  0  0  0  0
    5.8572   -3.2528    0.4835 H   0  0  0  0  0  0  0  0  0  0  0  0
    6.4952   -5.2857    1.3714 H   0  0  0  0  0  0  0  0  0  0  0  0
    6.5895   -6.9999    1.8142 H   0  0  0  0  0  0  0  0  0  0  0  0
    6.0574   -6.5203    0.1852 H   0  0  0  0  0  0  0  0  0  0  0  0
    8.6279   -7.9716    1.8761 H   0  0  0  0  0  0  0  0  0  0  0  0
   10.7102   -9.1363    2.0677 H   0  0  0  0  0  0  0  0  0  0  0  0
   12.1051   -8.0439    1.9013 H   0  0  0  0  0  0  0  0  0  0  0  0
   11.7071   -9.1686    0.5924 H   0  0  0  0  0  0  0  0  0  0  0  0
   11.9102   -6.7049   -0.5856 H   0  0  0  0  0  0  0  0  0  0  0  0
   11.5959   -5.2355   -2.3451 H   0  0  0  0  0  0  0  0  0  0  0  0
   11.0840   -3.7793   -1.4674 H   0  0  0  0  0  0  0  0  0  0  0  0
   10.0424   -4.4581   -2.7154 H   0  0  0  0  0  0  0  0  0  0  0  0
    7.2029   -2.2381   -2.8625 H   0  0  0  0  0  0  0  0  0  0  0  0
    7.9431    0.1092   -2.7879 H   0  0  0  0  0  0  0  0  0  0  0  0
   14.0167    1.4233    0.1834 H   0  0  0  0  0  0  0  0  0  0  0  0
   16.0804    2.8334    0.3712 H   0  0  0  0  0  0  0  0  0  0  0  0
   16.0017    5.2518   -0.1753 H   0  0  0  0  0  0  0  0  0  0  0  0
   13.8898    6.3340   -0.9227 H   0  0  0  0  0  0  0  0  0  0  0  0
   11.2281    6.8892   -0.7360 H   0  0  0  0  0  0  0  0  0  0  0  0
    9.9554    6.1233   -1.7359 H   0  0  0  0  0  0  0  0  0  0  0  0
   11.5466    6.5185   -2.4588 H   0  0  0  0  0  0  0  0  0  0  0  0
    6.9189    1.0027    0.2051 H   0  0  0  0  0  0  0  0  0  0  0  0
    4.5159    1.0810    0.0035 H   0  0  0  0  0  0  0  0  0  0  0  0
  1  2  1  0
  1 51  1  0
  1 52  1  0
  1 53  1  0
  2  3  1  0
  2 54  1  0
  2 55  1  0
  3  4  1  0
  3  6  1  0
  4  5  1  0
  4 56  1  0
  4 57  1  0
  5 58  1  0
  5 59  1  0
  5 60  1  0
  6  7  2  0
  6 50  1  0
  7  8  1  0
  7 61  1  0
  8  9  2  0
  8 62  1  0
  9 10  1  0
  9 49  1  0
 10 11  2  0
 10 15  1  0
 11 12  1  0
 12 13  2  0
 12 47  1  0
 13 14  1  0
 13 41  1  0
 14 15  2  0
 15 16  1  0
 16 17  2  0
 16 40  1  0
 17 18  1  0
 17 63  1  0
 18 19  2  0
 18 64  1  0
 19 20  1  0
 19 39  1  0
 20 21  1  0
 20 30  1  0
 21 22  2  0
 21 28  1  0
 22 23  1  0
 22 24  1  0
 23 65  1  0
 23 66  1  0
 23 67  1  0
 24 25  2  0
 24 68  1  0
 25 26  1  0
 25 27  1  0
 26 69  1  0
 26 70  1  0
 26 71  1  0
 27 28  2  0
 27 72  1  0
 28 29  1  0
 29 73  1  0
 29 74  1  0
 29 75  1  0
 30 31  2  0
 30 37  1  0
 31 32  1  0
 31 33  1  0
 32 76  1  0
 32 77  1  0
 32 78  1  0
 33 34  2  0
 33 79  1  0
 34 35  1  0
 34 36  1  0
 35 80  1  0
 35 81  1  0
 35 82  1  0
 36 37  2  0
 36 83  1  0
 37 38  1  0
 38 84  1  0
 38 85  1  0
 38 86  1  0
 39 40  2  0
 39 87  1  0
 40 88  1  0
 41 42  2  0
 41 46  1  0
 42 43  1  0
 42 89  1  0
 43 44  2  0
 43 90  1  0
 44 45  1  0
 44 91  1  0
 45 46  2  0
 45 92  1  0
 46 47  1  0
 47 48  1  0
 48 93  1  0
 48 94  1  0
 48 95  1  0
 49 50  2  0
 49 96  1  0
 50 97  1  0
M  END

