
     RDKit          3D

 31 34  0  0  0  0  0  0  0  0999 V2000
    1.0451    0.0835   -0.0520 N   0  0  0  0  0  0  0  0  0  0  0  0
    2.2066    0.0581   -0.0538 C   0  0  0  0  0  0  0  0  0  0  0  0
    3.6419    0.0281   -0.0595 C   0  0  0  0  0  0  0  0  0  0  0  0
    4.3350    1.2007   -0.2478 C   0  0  0  0  0  0  0  0  0  0  0  0
    5.7538    1.2265   -0.1565 C   0  0  0  0  0  0  0  0  0  0  0  0
    6.4403    2.4693   -0.1966 C   0  0  0  0  0  0  0  0  0  0  0  0
    7.7979    2.5495    0.0334 C   0  0  0  0  0  0  0  0  0  0  0  0
    8.4818    1.3607    0.3395 C   0  0  0  0  0  0  0  0  0  0  0  0
    9.7842    1.4353    0.6439 F   0  0  0  0  0  0  0  0  0  0  0  0
    7.8627    0.1275    0.3556 C   0  0  0  0  0  0  0  0  0  0  0  0
    6.4800    0.0049    0.0547 C   0  0  0  0  0  0  0  0  0  0  0  0
    5.7595   -1.2634    0.0341 C   0  0  0  0  0  0  0  0  0  0  0  0
    4.3408   -1.2277    0.1058 C   0  0  0  0  0  0  0  0  0  0  0  0
    3.5953   -2.4256    0.3431 C   0  0  0  0  0  0  0  0  0  0  0  0
    4.2239   -3.6297    0.4740 C   0  0  0  0  0  0  0  0  0  0  0  0
    5.6295   -3.7464    0.2477 C   0  0  0  0  0  0  0  0  0  0  0  0
    6.2465   -5.0242    0.2387 C   0  0  0  0  0  0  0  0  0  0  0  0
    7.5723   -5.1755   -0.1158 C   0  0  0  0  0  0  0  0  0  0  0  0
    8.3112   -4.0418   -0.5113 C   0  0  0  0  0  0  0  0  0  0  0  0
    7.7413   -2.7804   -0.4766 C   0  0  0  0  0  0  0  0  0  0  0  0
    6.4019   -2.5717   -0.0422 C   0  0  0  0  0  0  0  0  0  0  0  0
    3.7938    2.1347   -0.4122 H   0  0  0  0  0  0  0  0  0  0  0  0
    5.8652    3.3785   -0.3882 H   0  0  0  0  0  0  0  0  0  0  0  0
    8.3386    3.4973    0.0201 H   0  0  0  0  0  0  0  0  0  0  0  0
    8.4616   -0.7275    0.6568 H   0  0  0  0  0  0  0  0  0  0  0  0
    2.5103   -2.3556    0.4409 H   0  0  0  0  0  0  0  0  0  0  0  0
    3.6493   -4.5318    0.6987 H   0  0  0  0  0  0  0  0  0  0  0  0
    5.6386   -5.8967    0.4924 H   0  0  0  0  0  0  0  0  0  0  0  0
    8.0338   -6.1657   -0.1270 H   0  0  0  0  0  0  0  0  0  0  0  0
    9.3382   -4.1570   -0.8665 H   0  0  0  0  0  0  0  0  0  0  0  0
    8.3273   -1.9430   -0.8475 H   0  0  0  0  0  0  0  0  0  0  0  0
  1  2  3  0
  2  3  1  0
  3  4  2  0
  3 13  1  0
  4  5  1  0
  4 22  1  0
  5  6  2  0
  5 11  1  0
  6  7  1  0
  6 23  1  0
  7  8  2  0
  7 24  1  0
  8  9  1  0
  8 10  1  0
 10 11  2  0
 10 25  1  0
 11 12  1  0
 12 13  2  0
 12 21  1  0
 13 14  1  0
 14 15  2  0
 14 26  1  0
 15 16  1  0
 15 27  1  0
 16 17  1  0
 16 21  2  0
 17 18  2  0
 17 28  1  0
 18 19  1  0
 18 29  1  0
 19 20  2  0
 19 30  1  0
 20 21  1  0
 20 31  1  0
M  END

