
     RDKit          3D

 40 44  0  0  0  0  0  0  0  0999 V2000
    1.0629   -0.1049    0.1387 C   0  0  0  0  0  0  0  0  0  0  0  0
    2.5032   -0.0302    0.0218 N   0  0  0  0  0  0  0  0  0  0  0  0
    3.3334   -1.1458   -0.0149 C   0  0  0  0  0  0  0  0  0  0  0  0
    3.0141   -2.5107    0.0531 C   0  0  0  0  0  0  0  0  0  0  0  0
    4.0590   -3.4315   -0.0079 C   0  0  0  0  0  0  0  0  0  0  0  0
    5.3998   -3.0155   -0.1338 C   0  0  0  0  0  0  0  0  0  0  0  0
    5.7165   -1.6616   -0.2010 C   0  0  0  0  0  0  0  0  0  0  0  0
    4.6816   -0.7137   -0.1417 C   0  0  0  0  0  0  0  0  0  0  0  0
    4.6454    0.7263   -0.1814 C   0  0  0  0  0  0  0  0  0  0  0  0
    5.6757    1.6908   -0.2983 C   0  0  0  0  0  0  0  0  0  0  0  0
    5.3504    3.0243   -0.3108 C   0  0  0  0  0  0  0  0  0  0  0  0
    3.9903    3.4580   -0.2063 C   0  0  0  0  0  0  0  0  0  0  0  0
    3.6857    4.8425   -0.2203 C   0  0  0  0  0  0  0  0  0  0  0  0
    2.3873    5.3248   -0.1208 C   0  0  0  0  0  0  0  0  0  0  0  0
    2.0570    6.7779   -0.1348 C   0  0  0  0  0  0  0  0  0  0  0  0
    3.0430    7.7810   -0.2343 C   0  0  0  0  0  0  0  0  0  0  0  0
    2.6593    9.1199   -0.2423 C   0  0  0  0  0  0  0  0  0  0  0  0
    1.3025    9.4391   -0.1508 C   0  0  0  0  0  0  0  0  0  0  0  0
    0.3938    8.3814   -0.0544 C   0  0  0  0  0  0  0  0  0  0  0  0
    0.7546    7.1006   -0.0465 N   0  0  0  0  0  0  0  0  0  0  0  0
    1.3375    4.3743   -0.0009 C   0  0  0  0  0  0  0  0  0  0  0  0
    1.5934    3.0204    0.0163 C   0  0  0  0  0  0  0  0  0  0  0  0
    2.9167    2.5027   -0.0853 C   0  0  0  0  0  0  0  0  0  0  0  0
    3.2905    1.1183   -0.0781 C   0  0  0  0  0  0  0  0  0  0  0  0
    0.7608   -1.1578    0.1797 H   0  0  0  0  0  0  0  0  0  0  0  0
    0.5615    0.3547   -0.7277 H   0  0  0  0  0  0  0  0  0  0  0  0
    0.7032    0.3846    1.0578 H   0  0  0  0  0  0  0  0  0  0  0  0
    1.9843   -2.8590    0.1515 H   0  0  0  0  0  0  0  0  0  0  0  0
    3.8302   -4.4991    0.0437 H   0  0  0  0  0  0  0  0  0  0  0  0
    6.1941   -3.7644   -0.1786 H   0  0  0  0  0  0  0  0  0  0  0  0
    6.7564   -1.3394   -0.2985 H   0  0  0  0  0  0  0  0  0  0  0  0
    6.7171    1.3694   -0.3776 H   0  0  0  0  0  0  0  0  0  0  0  0
    6.1310    3.7839   -0.4006 H   0  0  0  0  0  0  0  0  0  0  0  0
    4.5287    5.5296   -0.3152 H   0  0  0  0  0  0  0  0  0  0  0  0
    4.0997    7.5224   -0.3039 H   0  0  0  0  0  0  0  0  0  0  0  0
    3.4142    9.9069   -0.3190 H   0  0  0  0  0  0  0  0  0  0  0  0
    0.9556   10.4747   -0.1533 H   0  0  0  0  0  0  0  0  0  0  0  0
   -0.6817    8.5843    0.0203 H   0  0  0  0  0  0  0  0  0  0  0  0
    0.3170    4.7489    0.0777 H   0  0  0  0  0  0  0  0  0  0  0  0
    0.7466    2.3458    0.1116 H   0  0  0  0  0  0  0  0  0  0  0  0
  1  2  1  0
  1 25  1  0
  1 26  1  0
  1 27  1  0
  2  3  1  0
  2 24  1  0
  3  4  2  0
  3  8  1  0
  4  5  1  0
  4 28  1  0
  5  6  2  0
  5 29  1  0
  6  7  1  0
  6 30  1  0
  7  8  2  0
  7 31  1  0
  8  9  1  0
  9 10  1  0
  9 24  2  0
 10 11  2  0
 10 32  1  0
 11 12  1  0
 11 33  1  0
 12 13  1  0
 12 23  2  0
 13 14  2  0
 13 34  1  0
 14 15  1  0
 14 21  1  0
 15 16  2  0
 15 20  1  0
 16 17  1  0
 16 35  1  0
 17 18  2  0
 17 36  1  0
 18 19  1  0
 18 37  1  0
 19 20  2  0
 19 38  1  0
 21 22  2  0
 21 39  1  0
 22 23  1  0
 22 40  1  0
 23 24  1  0
M  END

