
     RDKit          3D

 21 21  0  0  0  0  0  0  0  0999 V2000
    1.0897    0.0215    0.2771 I   0  0  0  0  0  0  0  0  0  0  0  0
    3.2716    0.0801    0.1113 C   0  0  0  0  0  0  0  0  0  0  0  0
    3.8407    1.4743    0.3197 C   0  0  0  0  0  0  0  0  0  0  0  0
    5.3615    1.4689    0.1958 C   0  0  0  0  0  0  0  0  0  0  0  0
    5.8066    2.8065    0.4047 O   0  0  0  0  0  0  0  0  0  0  0  0
    7.1295    3.0564    0.3405 C   0  0  0  0  0  0  0  0  0  0  0  0
    7.5431    4.3892    0.5498 C   0  0  0  0  0  0  0  0  0  0  0  0
    8.9025    4.6597    0.4863 C   0  0  0  0  0  0  0  0  0  0  0  0
    9.8023    3.6148    0.2205 C   0  0  0  0  0  0  0  0  0  0  0  0
    9.2791    2.3390    0.0307 C   0  0  0  0  0  0  0  0  0  0  0  0
    7.9690    2.0618    0.0889 N   0  0  0  0  0  0  0  0  0  0  0  0
    3.4836   -0.3174   -0.8898 H   0  0  0  0  0  0  0  0  0  0  0  0
    3.6254   -0.6374    0.8630 H   0  0  0  0  0  0  0  0  0  0  0  0
    3.5632    1.8580    1.3144 H   0  0  0  0  0  0  0  0  0  0  0  0
    3.4229    2.1747   -0.4208 H   0  0  0  0  0  0  0  0  0  0  0  0
    5.6888    1.1157   -0.7972 H   0  0  0  0  0  0  0  0  0  0  0  0
    5.8289    0.7983    0.9374 H   0  0  0  0  0  0  0  0  0  0  0  0
    6.7982    5.1600    0.7525 H   0  0  0  0  0  0  0  0  0  0  0  0
    9.2655    5.6790    0.6425 H   0  0  0  0  0  0  0  0  0  0  0  0
   10.8782    3.7894    0.1631 H   0  0  0  0  0  0  0  0  0  0  0  0
    9.9427    1.4921   -0.1793 H   0  0  0  0  0  0  0  0  0  0  0  0
  1  2  1  0
  2  3  1  0
  2 12  1  0
  2 13  1  0
  3  4  1  0
  3 14  1  0
  3 15  1  0
  4  5  1  0
  4 16  1  0
  4 17  1  0
  5  6  1  0
  6  7  2  0
  6 11  1  0
  7  8  1  0
  7 18  1  0
  8  9  2  0
  8 19  1  0
  9 10  1  0
  9 20  1  0
 10 11  2  0
 10 21  1  0
M  END

