
     RDKit          3D

 36 37  0  0  0  0  0  0  0  0999 V2000
    6.3078   -1.8314    5.6912 C   0  0  0  0  0  0  0  0  0  0  0  0
    6.5898   -1.5192    4.4266 C   0  0  0  0  0  0  0  0  0  0  0  0
    5.6626   -1.6549    3.4265 O   0  0  0  0  0  0  0  0  0  0  0  0
    5.7339   -0.8537    2.3168 C   0  0  0  0  0  0  0  0  0  0  0  0
    6.2159    0.4571    2.3908 C   0  0  0  0  0  0  0  0  0  0  0  0
    6.2226    1.2776    1.2616 C   0  0  0  0  0  0  0  0  0  0  0  0
    6.8611    3.0587    1.3594 Br  0  0  0  0  0  0  0  0  0  0  0  0
    5.7303    0.7725    0.0564 C   0  0  0  0  0  0  0  0  0  0  0  0
    5.7204    1.5364   -1.0373 F   0  0  0  0  0  0  0  0  0  0  0  0
    5.2544   -0.5304   -0.0306 C   0  0  0  0  0  0  0  0  0  0  0  0
    5.2500   -1.3727    1.0918 C   0  0  0  0  0  0  0  0  0  0  0  0
    4.7792   -2.6984    0.9871 N   0  0  0  0  0  0  0  0  0  0  0  0
    5.3138   -3.8475    1.7162 C   0  0  0  0  0  0  0  0  0  0  0  0
    4.7134   -5.0230    0.9233 C   0  0  2  0  0  0  0  0  0  0  0  0
    5.6912   -5.6845   -0.0459 C   0  0  0  0  0  0  0  0  0  0  0  0
    5.0483   -6.6710   -0.8801 N   0  0  0  0  0  0  0  0  0  0  0  0
    5.3819   -8.0013   -0.8324 C   0  0  0  0  0  0  0  0  0  0  0  0
    4.5794   -8.9056   -1.7521 C   0  0  0  0  0  0  0  0  0  0  0  0
    6.2685   -8.4294   -0.1138 O   0  0  0  0  0  0  0  0  0  0  0  0
    3.6321   -4.4343    0.1778 O   0  0  0  0  0  0  0  0  0  0  0  0
    3.7542   -3.0791    0.1273 C   0  0  0  0  0  0  0  0  0  0  0  0
    3.0676   -2.3818   -0.5671 O   0  0  0  0  0  0  0  0  0  0  0  0
    7.0917   -1.7797    6.4478 H   0  0  0  0  0  0  0  0  0  0  0  0
    5.3062   -2.1500    5.9884 H   0  0  0  0  0  0  0  0  0  0  0  0
    7.5803   -1.1854    4.0949 H   0  0  0  0  0  0  0  0  0  0  0  0
    6.5534    0.8555    3.3476 H   0  0  0  0  0  0  0  0  0  0  0  0
    4.8691   -0.8801   -0.9864 H   0  0  0  0  0  0  0  0  0  0  0  0
    4.9903   -3.8500    2.7655 H   0  0  0  0  0  0  0  0  0  0  0  0
    6.4152   -3.8546    1.6970 H   0  0  0  0  0  0  0  0  0  0  0  0
    4.2740   -5.7842    1.5840 H   0  0  0  0  0  0  0  0  0  0  0  0
    6.4794   -6.2064    0.5173 H   0  0  0  0  0  0  0  0  0  0  0  0
    6.1713   -4.9002   -0.6609 H   0  0  0  0  0  0  0  0  0  0  0  0
    4.2658   -6.3672   -1.4474 H   0  0  0  0  0  0  0  0  0  0  0  0
    3.7812   -8.3874   -2.3032 H   0  0  0  0  0  0  0  0  0  0  0  0
    4.1404   -9.7165   -1.1520 H   0  0  0  0  0  0  0  0  0  0  0  0
    5.2682   -9.3740   -2.4719 H   0  0  0  0  0  0  0  0  0  0  0  0
  1  2  2  0
  1 23  1  0
  1 24  1  0
  2  3  1  0
  2 25  1  0
  3  4  1  0
  4  5  2  0
  4 11  1  0
  5  6  1  0
  5 26  1  0
  6  7  1  0
  6  8  2  0
  8  9  1  0
  8 10  1  0
 10 11  2  0
 10 27  1  0
 11 12  1  0
 12 13  1  0
 12 21  1  0
 13 14  1  0
 13 28  1  0
 13 29  1  0
 14 15  1  0
 14 20  1  0
 14 30  1  1
 15 16  1  0
 15 31  1  0
 15 32  1  0
 16 17  1  0
 16 33  1  0
 17 18  1  0
 17 19  2  0
 18 34  1  0
 18 35  1  0
 18 36  1  0
 20 21  1  0
 21 22  2  0
M  END

