
     RDKit          3D

108119  0  0  0  0  0  0  0  0999 V2000
    5.7420    1.2468    3.3246 C   0  0  0  0  0  0  0  0  0  0  0  0
    6.0660    0.7683    4.5455 C   0  0  0  0  0  0  0  0  0  0  0  0
    5.6377    1.3283    5.8439 C   0  0  0  0  0  0  0  0  0  0  0  0
    5.0552    0.4501    6.8032 C   0  0  0  0  0  0  0  0  0  0  0  0
    4.8386   -0.9423    6.5394 C   0  0  0  0  0  0  0  0  0  0  0  0
    4.2790   -1.7737    7.4798 C   0  0  0  0  0  0  0  0  0  0  0  0
    3.8806   -1.2687    8.7508 C   0  0  0  0  0  0  0  0  0  0  0  0
    4.0474    0.0619    9.0393 C   0  0  0  0  0  0  0  0  0  0  0  0
    4.6297    0.9593    8.0872 C   0  0  0  0  0  0  0  0  0  0  0  0
    4.7803    2.3228    8.3701 C   0  0  0  0  0  0  0  0  0  0  0  0
    5.3609    3.2030    7.4496 C   0  0  0  0  0  0  0  0  0  0  0  0
    5.5265    4.5917    7.7623 C   0  0  0  0  0  0  0  0  0  0  0  0
    6.1387    5.4502    6.8862 C   0  0  0  0  0  0  0  0  0  0  0  0
    6.6380    4.9569    5.6460 C   0  0  0  0  0  0  0  0  0  0  0  0
    6.4838    3.6358    5.3019 C   0  0  0  0  0  0  0  0  0  0  0  0
    5.8193    2.7038    6.1683 C   0  0  0  0  0  0  0  0  0  0  0  0
    6.1543    0.7004    2.0254 C   0  0  0  0  0  0  0  0  0  0  0  0
    7.1792   -0.2575    1.8774 C   0  0  0  0  0  0  0  0  0  0  0  0
    7.5293   -0.7658    0.6297 C   0  0  0  0  0  0  0  0  0  0  0  0
    6.8495   -0.3257   -0.5166 C   0  0  0  0  0  0  0  0  0  0  0  0
    7.1748   -0.7414   -1.7823 O   0  0  0  0  0  0  0  0  0  0  0  0
    7.6195   -2.0190   -2.0336 C   0  0  0  0  0  0  0  0  0  0  0  0
    6.9863   -3.1339   -1.4222 C   0  0  0  0  0  0  0  0  0  0  0  0
    7.3940   -4.4092   -1.7331 C   0  0  0  0  0  0  0  0  0  0  0  0
    8.4410   -4.6361   -2.6686 C   0  0  0  0  0  0  0  0  0  0  0  0
    8.8777   -5.9486   -2.9995 C   0  0  0  0  0  0  0  0  0  0  0  0
    9.8903   -6.1503   -3.9134 C   0  0  0  0  0  0  0  0  0  0  0  0
   10.5091   -5.0385   -4.5362 C   0  0  0  0  0  0  0  0  0  0  0  0
   10.1081   -3.7522   -4.2378 C   0  0  0  0  0  0  0  0  0  0  0  0
    9.0658   -3.5067   -3.2984 C   0  0  0  0  0  0  0  0  0  0  0  0
    8.6364   -2.1785   -2.9639 C   0  0  0  0  0  0  0  0  0  0  0  0
    9.2532   -0.9830   -3.6172 C   0  0  0  0  0  0  0  0  0  0  0  0
   10.3645   -0.3751   -3.0527 C   0  0  0  0  0  0  0  0  0  0  0  0
   10.9010   -0.9380   -1.9169 O   0  0  0  0  0  0  0  0  0  0  0  0
   11.2757   -0.1745   -0.8421 C   0  0  0  0  0  0  0  0  0  0  0  0
   10.6689    1.0432   -0.5121 C   0  0  0  0  0  0  0  0  0  0  0  0
   11.0856    1.7278    0.6293 C   0  0  0  0  0  0  0  0  0  0  0  0
   12.0951    1.2281    1.4754 C   0  0  0  0  0  0  0  0  0  0  0  0
   12.4820    2.0078    2.6574 C   0  0  0  0  0  0  0  0  0  0  0  0
   13.4489    1.7151    3.5543 C   0  0  0  0  0  0  0  0  0  0  0  0
   13.8244    2.5262    4.7297 C   0  0  0  0  0  0  0  0  0  0  0  0
   12.8550    3.0123    5.6551 C   0  0  0  0  0  0  0  0  0  0  0  0
   11.4574    2.6957    5.5734 C   0  0  0  0  0  0  0  0  0  0  0  0
   10.5487    3.1961    6.4740 C   0  0  0  0  0  0  0  0  0  0  0  0
   10.9696    4.0502    7.5340 C   0  0  0  0  0  0  0  0  0  0  0  0
   12.2996    4.3479    7.6801 C   0  0  0  0  0  0  0  0  0  0  0  0
   13.2807    3.8345    6.7703 C   0  0  0  0  0  0  0  0  0  0  0  0
   14.6418    4.1038    6.9548 C   0  0  0  0  0  0  0  0  0  0  0  0
   15.6150    3.5975    6.0842 C   0  0  0  0  0  0  0  0  0  0  0  0
   17.0068    3.8657    6.2886 C   0  0  0  0  0  0  0  0  0  0  0  0
   17.9568    3.3913    5.4202 C   0  0  0  0  0  0  0  0  0  0  0  0
   17.5598    2.6285    4.2849 C   0  0  0  0  0  0  0  0  0  0  0  0
   16.2332    2.3534    4.0543 C   0  0  0  0  0  0  0  0  0  0  0  0
   15.2059    2.8050    4.9467 C   0  0  0  0  0  0  0  0  0  0  0  0
   12.6751   -0.0113    1.1263 C   0  0  0  0  0  0  0  0  0  0  0  0
   12.2792   -0.7007   -0.0142 C   0  0  0  0  0  0  0  0  0  0  0  0
   10.9989    0.7387   -3.6647 C   0  0  0  0  0  0  0  0  0  0  0  0
   10.4990    1.2526   -4.8372 C   0  0  0  0  0  0  0  0  0  0  0  0
    9.3538    0.6807   -5.4577 C   0  0  0  0  0  0  0  0  0  0  0  0
    8.8208    1.2014   -6.6692 C   0  0  0  0  0  0  0  0  0  0  0  0
    7.7132    0.6311   -7.2602 C   0  0  0  0  0  0  0  0  0  0  0  0
    7.0919   -0.4905   -6.6580 C   0  0  0  0  0  0  0  0  0  0  0  0
    7.5849   -1.0205   -5.4831 C   0  0  0  0  0  0  0  0  0  0  0  0
    8.7265   -0.4566   -4.8448 C   0  0  0  0  0  0  0  0  0  0  0  0
    5.8414    0.6380   -0.4017 C   0  0  0  0  0  0  0  0  0  0  0  0
    5.5089    1.1443    0.8529 C   0  0  0  0  0  0  0  0  0  0  0  0
    5.0739    2.1133    3.2694 H   0  0  0  0  0  0  0  0  0  0  0  0
    6.6641   -0.1484    4.6011 H   0  0  0  0  0  0  0  0  0  0  0  0
    5.1109   -1.3481    5.5645 H   0  0  0  0  0  0  0  0  0  0  0  0
    4.1292   -2.8315    7.2492 H   0  0  0  0  0  0  0  0  0  0  0  0
    3.4356   -1.9426    9.4871 H   0  0  0  0  0  0  0  0  0  0  0  0
    3.7349    0.4645   10.0067 H   0  0  0  0  0  0  0  0  0  0  0  0
    4.4416    2.7083    9.3359 H   0  0  0  0  0  0  0  0  0  0  0  0
    5.1580    4.9509    8.7271 H   0  0  0  0  0  0  0  0  0  0  0  0
    6.2607    6.5062    7.1397 H   0  0  0  0  0  0  0  0  0  0  0  0
    7.1587    5.6363    4.9663 H   0  0  0  0  0  0  0  0  0  0  0  0
    6.8907    3.2787    4.3568 H   0  0  0  0  0  0  0  0  0  0  0  0
    7.7365   -0.5975    2.7530 H   0  0  0  0  0  0  0  0  0  0  0  0
    8.3410   -1.4893    0.5387 H   0  0  0  0  0  0  0  0  0  0  0  0
    6.1737   -2.9630   -0.7142 H   0  0  0  0  0  0  0  0  0  0  0  0
    6.9052   -5.2684   -1.2661 H   0  0  0  0  0  0  0  0  0  0  0  0
    8.3927   -6.7995   -2.5128 H   0  0  0  0  0  0  0  0  0  0  0  0
   10.2170   -7.1637   -4.1593 H   0  0  0  0  0  0  0  0  0  0  0  0
   11.3119   -5.2018   -5.2597 H   0  0  0  0  0  0  0  0  0  0  0  0
   10.5932   -2.9035   -4.7227 H   0  0  0  0  0  0  0  0  0  0  0  0
    9.8706    1.4468   -1.1364 H   0  0  0  0  0  0  0  0  0  0  0  0
   10.6056    2.6780    0.8790 H   0  0  0  0  0  0  0  0  0  0  0  0
   11.9213    2.9391    2.7899 H   0  0  0  0  0  0  0  0  0  0  0  0
   14.0523    0.8153    3.3917 H   0  0  0  0  0  0  0  0  0  0  0  0
   11.1139    2.0250    4.7873 H   0  0  0  0  0  0  0  0  0  0  0  0
    9.4923    2.9315    6.3847 H   0  0  0  0  0  0  0  0  0  0  0  0
   10.2311    4.4475    8.2347 H   0  0  0  0  0  0  0  0  0  0  0  0
   12.6414    4.9805    8.5040 H   0  0  0  0  0  0  0  0  0  0  0  0
   14.9530    4.7206    7.8028 H   0  0  0  0  0  0  0  0  0  0  0  0
   17.2964    4.4634    7.1573 H   0  0  0  0  0  0  0  0  0  0  0  0
   19.0157    3.6030    5.5890 H   0  0  0  0  0  0  0  0  0  0  0  0
   18.3187    2.2668    3.5862 H   0  0  0  0  0  0  0  0  0  0  0  0
   15.9554    1.7902    3.1629 H   0  0  0  0  0  0  0  0  0  0  0  0
   13.4540   -0.4465    1.7561 H   0  0  0  0  0  0  0  0  0  0  0  0
   12.7313   -1.6571   -0.2843 H   0  0  0  0  0  0  0  0  0  0  0  0
   11.8849    1.1698   -3.1954 H   0  0  0  0  0  0  0  0  0  0  0  0
   10.9877    2.1076   -5.3121 H   0  0  0  0  0  0  0  0  0  0  0  0
    9.3085    2.0673   -7.1256 H   0  0  0  0  0  0  0  0  0  0  0  0
    7.3131    1.0406   -8.1911 H   0  0  0  0  0  0  0  0  0  0  0  0
    6.2138   -0.9398   -7.1289 H   0  0  0  0  0  0  0  0  0  0  0  0
    7.0976   -1.8841   -5.0275 H   0  0  0  0  0  0  0  0  0  0  0  0
    5.3336    0.9788   -1.3061 H   0  0  0  0  0  0  0  0  0  0  0  0
    4.7178    1.8951    0.9319 H   0  0  0  0  0  0  0  0  0  0  0  0
  1  2  2  0
  1 17  1  0
  1 67  1  0
  2  3  1  0
  2 68  1  0
  3  4  1  0
  3 16  2  0
  4  5  2  0
  4  9  1  0
  5  6  1  0
  5 69  1  0
  6  7  2  0
  6 70  1  0
  7  8  1  0
  7 71  1  0
  8  9  2  0
  8 72  1  0
  9 10  1  0
 10 11  2  0
 10 73  1  0
 11 12  1  0
 11 16  1  0
 12 13  2  0
 12 74  1  0
 13 14  1  0
 13 75  1  0
 14 15  2  0
 14 76  1  0
 15 16  1  0
 15 77  1  0
 17 18  2  0
 17 66  1  0
 18 19  1  0
 18 78  1  0
 19 20  2  0
 19 79  1  0
 20 21  1  0
 20 65  1  0
 21 22  1  0
 22 23  2  0
 22 31  1  0
 23 24  1  0
 23 80  1  0
 24 25  2  0
 24 81  1  0
 25 26  1  0
 25 30  1  0
 26 27  2  0
 26 82  1  0
 27 28  1  0
 27 83  1  0
 28 29  2  0
 28 84  1  0
 29 30  1  0
 29 85  1  0
 30 31  2  0
 31 32  1  0
 32 33  1  0
 32 64  2  0
 33 34  1  0
 33 57  2  0
 34 35  1  0
 35 36  2  0
 35 56  1  0
 36 37  1  0
 36 86  1  0
 37 38  2  0
 37 87  1  0
 38 39  1  0
 38 55  1  0
 39 40  2  0
 39 88  1  0
 40 41  1  0
 40 89  1  0
 41 42  1  0
 41 54  2  0
 42 43  2  0
 42 47  1  0
 43 44  1  0
 43 90  1  0
 44 45  2  0
 44 91  1  0
 45 46  1  0
 45 92  1  0
 46 47  2  0
 46 93  1  0
 47 48  1  0
 48 49  2  0
 48 94  1  0
 49 50  1  0
 49 54  1  0
 50 51  2  0
 50 95  1  0
 51 52  1  0
 51 96  1  0
 52 53  2  0
 52 97  1  0
 53 54  1  0
 53 98  1  0
 55 56  2  0
 55 99  1  0
 56100  1  0
 57 58  1  0
 57101  1  0
 58 59  2  0
 58102  1  0
 59 60  1  0
 59 64  1  0
 60 61  2  0
 60103  1  0
 61 62  1  0
 61104  1  0
 62 63  2  0
 62105  1  0
 63 64  1  0
 63106  1  0
 65 66  2  0
 65107  1  0
 66108  1  0
M  END

