
     RDKit          3D

 27 27  0  0  0  0  0  0  0  0999 V2000
    1.0512    0.1300   -0.2843 C   0  0  0  0  0  0  0  0  0  0  0  0
    2.5342   -0.0482    0.0874 C   0  0  1  0  0  0  0  0  0  0  0  0
    2.6240   -0.1960    1.6242 C   0  0  0  0  0  0  0  0  0  0  0  0
    3.0308   -1.2073   -0.6608 N   0  0  0  0  0  0  0  0  0  0  0  0
    3.2865    1.2148   -0.4420 C   0  0  1  0  0  0  0  0  0  0  0  0
    2.8499    2.3967    0.2255 O   0  0  0  0  0  0  0  0  0  0  0  0
    4.8145    1.2121   -0.5206 C   0  0  0  0  0  0  0  0  0  0  0  0
    5.6854    0.4032    0.2243 C   0  0  0  0  0  0  0  0  0  0  0  0
    7.0768    0.5317    0.1198 C   0  0  0  0  0  0  0  0  0  0  0  0
    7.6173    1.4906   -0.7360 C   0  0  0  0  0  0  0  0  0  0  0  0
    9.7278    1.6955   -0.9011 I   0  0  0  0  0  0  0  0  0  0  0  0
    6.7764    2.3179   -1.4886 C   0  0  0  0  0  0  0  0  0  0  0  0
    5.3949    2.1700   -1.3734 C   0  0  0  0  0  0  0  0  0  0  0  0
    0.4476   -0.7015    0.1162 H   0  0  0  0  0  0  0  0  0  0  0  0
    0.9320    0.1430   -1.3784 H   0  0  0  0  0  0  0  0  0  0  0  0
    0.6608    1.0717    0.1252 H   0  0  0  0  0  0  0  0  0  0  0  0
    2.0262   -1.0629    1.9491 H   0  0  0  0  0  0  0  0  0  0  0  0
    2.2196    0.6921    2.1350 H   0  0  0  0  0  0  0  0  0  0  0  0
    3.6506   -0.3528    1.9863 H   0  0  0  0  0  0  0  0  0  0  0  0
    2.4276   -2.0146   -0.5012 H   0  0  0  0  0  0  0  0  0  0  0  0
    3.9677   -1.4783   -0.3679 H   0  0  0  0  0  0  0  0  0  0  0  0
    2.9373    1.3329   -1.4797 H   0  0  0  0  0  0  0  0  0  0  0  0
    3.3494    2.4792    1.0490 H   0  0  0  0  0  0  0  0  0  0  0  0
    5.3006   -0.3550    0.9060 H   0  0  0  0  0  0  0  0  0  0  0  0
    7.7261   -0.1179    0.7094 H   0  0  0  0  0  0  0  0  0  0  0  0
    7.1921    3.0691   -2.1625 H   0  0  0  0  0  0  0  0  0  0  0  0
    4.7421    2.8225   -1.9594 H   0  0  0  0  0  0  0  0  0  0  0  0
  1  2  1  0
  1 14  1  0
  1 15  1  0
  1 16  1  0
  2  3  1  0
  2  4  1  6
  2  5  1  0
  3 17  1  0
  3 18  1  0
  3 19  1  0
  4 20  1  0
  4 21  1  0
  5  6  1  0
  5  7  1  0
  5 22  1  6
  6 23  1  0
  7  8  2  0
  7 13  1  0
  8  9  1  0
  8 24  1  0
  9 10  2  0
  9 25  1  0
 10 11  1  0
 10 12  1  0
 12 13  2  0
 12 26  1  0
 13 27  1  0
M  END

