
     RDKit          3D

 45 47  0  0  0  0  0  0  0  0999 V2000
    0.6239    1.4913   -0.2221 C   0  0  0  0  0  0  0  0  0  0  0  0
    1.9354    2.1456   -0.6107 C   0  0  0  0  0  0  0  0  0  0  0  0
    2.9738    1.1908   -0.4363 O   0  0  0  0  0  0  0  0  0  0  0  0
    4.2585    1.5215   -0.7124 C   0  0  0  0  0  0  0  0  0  0  0  0
    4.6649    2.7806   -1.1802 C   0  0  0  0  0  0  0  0  0  0  0  0
    6.0142    3.0267   -1.4348 C   0  0  0  0  0  0  0  0  0  0  0  0
    6.9745    2.0274   -1.2438 C   0  0  0  0  0  0  0  0  0  0  0  0
    8.4048    2.3691   -1.5372 C   0  0  0  0  0  0  0  0  0  0  0  0
    8.7894    3.5291   -1.6326 O   0  0  0  0  0  0  0  0  0  0  0  0
    9.2665    1.3123   -1.6901 N   0  0  0  0  0  0  0  0  0  0  0  0
   10.6722    1.5243   -1.9942 C   0  0  0  0  0  0  0  0  0  0  0  0
   10.9579    1.7027   -3.4625 C   0  0  0  0  0  0  0  0  0  0  0  0
   10.5935    2.7927   -4.3064 C   0  0  0  0  0  0  0  0  0  0  0  0
   11.0867    2.4337   -5.5358 C   0  0  0  0  0  0  0  0  0  0  0  0
   11.0817    3.0728   -6.8526 C   0  0  0  0  0  0  0  0  0  0  0  0
   10.4674    4.3266   -7.0323 C   0  0  0  0  0  0  0  0  0  0  0  0
   10.4613    4.9373   -8.2857 C   0  0  0  0  0  0  0  0  0  0  0  0
   11.0670    4.3082   -9.3792 C   0  0  0  0  0  0  0  0  0  0  0  0
   11.6796    3.0627   -9.2092 C   0  0  0  0  0  0  0  0  0  0  0  0
   11.6891    2.4467   -7.9573 C   0  0  0  0  0  0  0  0  0  0  0  0
   11.6921    1.2291   -5.4270 O   0  0  0  0  0  0  0  0  0  0  0  0
   11.6076    0.7733   -4.1276 N   0  0  0  0  0  0  0  0  0  0  0  0
    6.5506    0.7751   -0.7600 C   0  0  0  0  0  0  0  0  0  0  0  0
    5.2115    0.4969   -0.4893 C   0  0  0  0  0  0  0  0  0  0  0  0
    4.7582   -0.8389    0.0371 C   0  0  0  0  0  0  0  0  0  0  0  0
   -0.2068    2.2031   -0.3464 H   0  0  0  0  0  0  0  0  0  0  0  0
    0.6478    1.1641    0.8285 H   0  0  0  0  0  0  0  0  0  0  0  0
    0.4256    0.6113   -0.8529 H   0  0  0  0  0  0  0  0  0  0  0  0
    2.1333    3.0340    0.0176 H   0  0  0  0  0  0  0  0  0  0  0  0
    1.9096    2.4835   -1.6635 H   0  0  0  0  0  0  0  0  0  0  0  0
    3.9373    3.5749   -1.3458 H   0  0  0  0  0  0  0  0  0  0  0  0
    6.3459    4.0050   -1.7873 H   0  0  0  0  0  0  0  0  0  0  0  0
    8.8836    0.3897   -1.8547 H   0  0  0  0  0  0  0  0  0  0  0  0
   11.2537    0.6660   -1.6278 H   0  0  0  0  0  0  0  0  0  0  0  0
   10.9913    2.4251   -1.4515 H   0  0  0  0  0  0  0  0  0  0  0  0
   10.0503    3.6848   -4.0093 H   0  0  0  0  0  0  0  0  0  0  0  0
    9.9924    4.8250   -6.1846 H   0  0  0  0  0  0  0  0  0  0  0  0
    9.9809    5.9110   -8.4104 H   0  0  0  0  0  0  0  0  0  0  0  0
   11.0613    4.7885  -10.3609 H   0  0  0  0  0  0  0  0  0  0  0  0
   12.1549    2.5660  -10.0589 H   0  0  0  0  0  0  0  0  0  0  0  0
   12.1674    1.4751   -7.8235 H   0  0  0  0  0  0  0  0  0  0  0  0
    7.2838   -0.0095   -0.5531 H   0  0  0  0  0  0  0  0  0  0  0  0
    5.6084   -1.5240    0.1671 H   0  0  0  0  0  0  0  0  0  0  0  0
    4.0318   -1.3103   -0.6451 H   0  0  0  0  0  0  0  0  0  0  0  0
    4.2449   -0.7325    1.0069 H   0  0  0  0  0  0  0  0  0  0  0  0
  1  2  1  0
  1 26  1  0
  1 27  1  0
  1 28  1  0
  2  3  1  0
  2 29  1  0
  2 30  1  0
  3  4  1  0
  4  5  2  0
  4 24  1  0
  5  6  1  0
  5 31  1  0
  6  7  2  0
  6 32  1  0
  7  8  1  0
  7 23  1  0
  8  9  2  0
  8 10  1  0
 10 11  1  0
 10 33  1  0
 11 12  1  0
 11 34  1  0
 11 35  1  0
 12 13  1  0
 12 22  2  0
 13 14  2  0
 13 36  1  0
 14 15  1  0
 14 21  1  0
 15 16  2  0
 15 20  1  0
 16 17  1  0
 16 37  1  0
 17 18  2  0
 17 38  1  0
 18 19  1  0
 18 39  1  0
 19 20  2  0
 19 40  1  0
 20 41  1  0
 21 22  1  0
 23 24  2  0
 23 42  1  0
 24 25  1  0
 25 43  1  0
 25 44  1  0
 25 45  1  0
M  END

