
     RDKit          3D

 44 45  0  0  0  0  0  0  0  0999 V2000
    2.1037   -1.8607    1.2311 C   0  0  0  0  0  0  0  0  0  0  0  0
    2.0611   -0.6187    2.1212 C   0  0  0  0  0  0  0  0  0  0  0  0
    2.8787    0.5804    1.5922 C   0  0  1  0  0  0  0  0  0  0  0  0
    2.5044    0.8043    0.5771 H   0  0  0  0  0  0  0  0  0  0  0  0
    2.6417    1.8323    2.4552 C   0  0  0  0  0  0  0  0  0  0  0  0
    4.3638    0.2709    1.4527 C   0  0  0  0  0  0  0  0  0  0  0  0
    5.0088    0.3436    0.2100 C   0  0  0  0  0  0  0  0  0  0  0  0
    6.3716    0.0766    0.0540 C   0  0  0  0  0  0  0  0  0  0  0  0
    7.1382   -0.2776    1.1751 C   0  0  0  0  0  0  0  0  0  0  0  0
    8.5201   -0.5617    1.1139 N   0  0  0  0  0  0  0  0  0  0  0  0
    9.3594   -0.5398    0.0319 C   0  0  0  0  0  0  0  0  0  0  0  0
    9.0321   -0.2943   -1.1118 O   0  0  0  0  0  0  0  0  0  0  0  0
   10.8262   -0.8288    0.4047 C   0  0  0  0  0  0  0  0  0  0  0  0
   11.5985   -1.0276   -0.7585 O   0  0  0  0  0  0  0  0  0  0  0  0
   11.4934   -2.2503   -1.3434 C   0  0  0  0  0  0  0  0  0  0  0  0
   10.9392   -3.1800   -0.8165 O   0  0  0  0  0  0  0  0  0  0  0  0
   12.1308   -2.2449   -2.6962 C   0  0  0  0  0  0  0  0  0  0  0  0
   11.9897   -1.0886   -3.4862 C   0  0  0  0  0  0  0  0  0  0  0  0
   12.4981   -1.0341   -4.7823 C   0  0  0  0  0  0  0  0  0  0  0  0
   13.1754   -2.1392   -5.3047 C   0  0  0  0  0  0  0  0  0  0  0  0
   13.3368   -3.2926   -4.5346 C   0  0  0  0  0  0  0  0  0  0  0  0
   12.8111   -3.3516   -3.2397 C   0  0  0  0  0  0  0  0  0  0  0  0
   13.1127   -4.9548   -2.2536 Br  0  0  0  0  0  0  0  0  0  0  0  0
    6.5087   -0.3570    2.4298 C   0  0  0  0  0  0  0  0  0  0  0  0
    5.1488   -0.0873    2.5619 C   0  0  0  0  0  0  0  0  0  0  0  0
    1.4843   -2.6704    1.6489 H   0  0  0  0  0  0  0  0  0  0  0  0
    3.1294   -2.2468    1.1210 H   0  0  0  0  0  0  0  0  0  0  0  0
    1.7235   -1.6408    0.2193 H   0  0  0  0  0  0  0  0  0  0  0  0
    2.4111   -0.8760    3.1375 H   0  0  0  0  0  0  0  0  0  0  0  0
    1.0135   -0.2904    2.2427 H   0  0  0  0  0  0  0  0  0  0  0  0
    1.5706    2.0912    2.4858 H   0  0  0  0  0  0  0  0  0  0  0  0
    3.1915    2.7005    2.0597 H   0  0  0  0  0  0  0  0  0  0  0  0
    2.9740    1.6726    3.4943 H   0  0  0  0  0  0  0  0  0  0  0  0
    4.4281    0.6171   -0.6759 H   0  0  0  0  0  0  0  0  0  0  0  0
    6.8458    0.1353   -0.9228 H   0  0  0  0  0  0  0  0  0  0  0  0
    8.9366   -0.8307    1.9988 H   0  0  0  0  0  0  0  0  0  0  0  0
   10.8889   -1.7030    1.0726 H   0  0  0  0  0  0  0  0  0  0  0  0
   11.2531    0.0508    0.9110 H   0  0  0  0  0  0  0  0  0  0  0  0
   11.4458   -0.2433   -3.0626 H   0  0  0  0  0  0  0  0  0  0  0  0
   12.3649   -0.1317   -5.3830 H   0  0  0  0  0  0  0  0  0  0  0  0
   13.5840   -2.1093   -6.3180 H   0  0  0  0  0  0  0  0  0  0  0  0
   13.8732   -4.1548   -4.9337 H   0  0  0  0  0  0  0  0  0  0  0  0
    7.0930   -0.6337    3.3133 H   0  0  0  0  0  0  0  0  0  0  0  0
    4.6954   -0.1592    3.5541 H   0  0  0  0  0  0  0  0  0  0  0  0
  1  2  1  0
  1 26  1  0
  1 27  1  0
  1 28  1  0
  2  3  1  0
  2 29  1  0
  2 30  1  0
  3  4  1  6
  3  5  1  0
  3  6  1  0
  5 31  1  0
  5 32  1  0
  5 33  1  0
  6  7  2  0
  6 25  1  0
  7  8  1  0
  7 34  1  0
  8  9  2  0
  8 35  1  0
  9 10  1  0
  9 24  1  0
 10 11  1  0
 10 36  1  0
 11 12  2  0
 11 13  1  0
 13 14  1  0
 13 37  1  0
 13 38  1  0
 14 15  1  0
 15 16  2  0
 15 17  1  0
 17 18  2  0
 17 22  1  0
 18 19  1  0
 18 39  1  0
 19 20  2  0
 19 40  1  0
 20 21  1  0
 20 41  1  0
 21 22  2  0
 21 42  1  0
 22 23  1  0
 24 25  2  0
 24 43  1  0
 25 44  1  0
M  END

