
     RDKit          3D

 51 53  0  0  0  0  0  0  0  0999 V2000
    2.1572    4.7142   -1.1304 C   0  0  0  0  0  0  0  0  0  0  0  0
    3.5715    4.5605   -0.8498 N   0  0  0  0  0  0  0  0  0  0  0  0
    4.4355    5.6169   -1.3634 C   0  0  1  0  0  0  0  0  0  0  0  0
    4.3407    6.8774   -0.4976 C   0  0  0  0  0  0  0  0  0  0  0  0
    5.8934    5.1076   -1.4036 C   0  0  0  0  0  0  0  0  0  0  0  0
    6.1209    4.0544   -2.4424 C   0  0  0  0  0  0  0  0  0  0  0  0
    5.8229    2.7903   -2.2424 N   0  0  0  0  0  0  0  0  0  0  0  0
    6.1278    2.1809   -3.4531 O   0  0  0  0  0  0  0  0  0  0  0  0
    6.5859    3.1469   -4.2681 C   0  0  0  0  0  0  0  0  0  0  0  0
    6.9890    2.7829   -5.6152 C   0  0  0  0  0  0  0  0  0  0  0  0
    7.4320    3.7078   -6.4690 N   0  0  0  0  0  0  0  0  0  0  0  0
    7.7099    3.0676   -7.6011 N   0  0  0  0  0  0  0  0  0  0  0  0
    8.2001    3.7880   -8.7252 C   0  0  0  0  0  0  0  0  0  0  0  0
    8.1210    5.1886   -8.7294 C   0  0  0  0  0  0  0  0  0  0  0  0
    8.5958    5.9006   -9.8305 C   0  0  0  0  0  0  0  0  0  0  0  0
    9.1449    5.2331  -10.9307 C   0  0  0  0  0  0  0  0  0  0  0  0
    9.2231    3.8383  -10.9175 C   0  0  0  0  0  0  0  0  0  0  0  0
    8.7583    3.1116   -9.8188 C   0  0  0  0  0  0  0  0  0  0  0  0
    7.4557    1.7148   -7.5174 C   0  0  0  0  0  0  0  0  0  0  0  0
    6.9861    1.4916   -6.2336 C   0  0  0  0  0  0  0  0  0  0  0  0
    6.5969    0.3600   -5.6353 O   0  0  0  0  0  0  0  0  0  0  0  0
    6.6096   -0.8346   -6.4071 C   0  0  0  0  0  0  0  0  0  0  0  0
    6.1324   -1.9957   -5.5381 C   0  0  1  0  0  0  0  0  0  0  0  0
    4.7217   -1.7495   -4.9920 C   0  0  0  0  0  0  0  0  0  0  0  0
    6.2259   -3.3080   -6.3251 C   0  0  0  0  0  0  0  0  0  0  0  0
    6.6009    4.3218   -3.6994 N   0  0  0  0  0  0  0  0  0  0  0  0
    1.6134    3.8216   -0.7836 H   0  0  0  0  0  0  0  0  0  0  0  0
    1.9165    4.8614   -2.2084 H   0  0  0  0  0  0  0  0  0  0  0  0
    1.7361    5.5759   -0.5862 H   0  0  0  0  0  0  0  0  0  0  0  0
    3.8930    3.6555   -1.1923 H   0  0  0  0  0  0  0  0  0  0  0  0
    4.1564    5.8994   -2.4062 H   0  0  0  0  0  0  0  0  0  0  0  0
    4.6707    6.6593    0.5308 H   0  0  0  0  0  0  0  0  0  0  0  0
    3.3066    7.2509   -0.4470 H   0  0  0  0  0  0  0  0  0  0  0  0
    4.9655    7.6866   -0.9084 H   0  0  0  0  0  0  0  0  0  0  0  0
    6.1473    4.7072   -0.4095 H   0  0  0  0  0  0  0  0  0  0  0  0
    6.5679    5.9457   -1.6266 H   0  0  0  0  0  0  0  0  0  0  0  0
    7.6905    5.6939   -7.8655 H   0  0  0  0  0  0  0  0  0  0  0  0
    8.5313    6.9915   -9.8283 H   0  0  0  0  0  0  0  0  0  0  0  0
    9.5123    5.7969  -11.7912 H   0  0  0  0  0  0  0  0  0  0  0  0
    9.6579    3.3042  -11.7659 H   0  0  0  0  0  0  0  0  0  0  0  0
    8.8497    2.0248   -9.8165 H   0  0  0  0  0  0  0  0  0  0  0  0
    7.5979    1.0403   -8.3533 H   0  0  0  0  0  0  0  0  0  0  0  0
    7.6356   -1.0220   -6.7781 H   0  0  0  0  0  0  0  0  0  0  0  0
    5.9492   -0.7109   -7.2888 H   0  0  0  0  0  0  0  0  0  0  0  0
    6.8280   -2.0525   -4.6813 H   0  0  0  0  0  0  0  0  0  0  0  0
    3.9855   -1.6893   -5.8127 H   0  0  0  0  0  0  0  0  0  0  0  0
    4.6776   -0.8093   -4.4237 H   0  0  0  0  0  0  0  0  0  0  0  0
    4.4119   -2.5696   -4.3251 H   0  0  0  0  0  0  0  0  0  0  0  0
    5.5570   -3.2966   -7.2030 H   0  0  0  0  0  0  0  0  0  0  0  0
    5.9283   -4.1615   -5.6964 H   0  0  0  0  0  0  0  0  0  0  0  0
    7.2502   -3.5004   -6.6847 H   0  0  0  0  0  0  0  0  0  0  0  0
  1  2  1  0
  1 27  1  0
  1 28  1  0
  1 29  1  0
  2  3  1  0
  2 30  1  0
  3  4  1  0
  3  5  1  0
  3 31  1  6
  4 32  1  0
  4 33  1  0
  4 34  1  0
  5  6  1  0
  5 35  1  0
  5 36  1  0
  6  7  2  0
  6 26  1  0
  7  8  1  0
  8  9  1  0
  9 10  1  0
  9 26  2  0
 10 11  2  0
 10 20  1  0
 11 12  1  0
 12 13  1  0
 12 19  1  0
 13 14  2  0
 13 18  1  0
 14 15  1  0
 14 37  1  0
 15 16  2  0
 15 38  1  0
 16 17  1  0
 16 39  1  0
 17 18  2  0
 17 40  1  0
 18 41  1  0
 19 20  2  0
 19 42  1  0
 20 21  1  0
 21 22  1  0
 22 23  1  0
 22 43  1  0
 22 44  1  0
 23 24  1  0
 23 25  1  0
 23 45  1  1
 24 46  1  0
 24 47  1  0
 24 48  1  0
 25 49  1  0
 25 50  1  0
 25 51  1  0
M  END

