
     RDKit          3D

 34 35  0  0  0  0  0  0  0  0999 V2000
    4.3456    1.3759   -1.4897 C   0  0  0  0  0  0  0  0  0  0  0  0
    4.4969    0.0713   -0.9776 O   0  0  0  0  0  0  0  0  0  0  0  0
    4.1504   -0.1829    0.3096 C   0  0  0  0  0  0  0  0  0  0  0  0
    3.6401    0.7745    1.1992 C   0  0  0  0  0  0  0  0  0  0  0  0
    3.3190    0.3889    2.5062 C   0  0  0  0  0  0  0  0  0  0  0  0
    3.4912   -0.9258    2.9364 C   0  0  0  0  0  0  0  0  0  0  0  0
    3.9979   -1.8939    2.0454 C   0  0  0  0  0  0  0  0  0  0  0  0
    4.2269   -3.3041    2.4858 C   0  0  0  0  0  0  0  0  0  0  0  0
    5.5379   -3.8144    2.4609 C   0  0  0  0  0  0  0  0  0  0  0  0
    5.8209   -5.1179    2.8685 C   0  0  0  0  0  0  0  0  0  0  0  0
    4.7833   -5.9459    3.3036 C   0  0  0  0  0  0  0  0  0  0  0  0
    3.4762   -5.4596    3.3149 C   0  0  0  0  0  0  0  0  0  0  0  0
    3.1759   -4.1483    2.9122 C   0  0  0  0  0  0  0  0  0  0  0  0
    1.7268   -3.7163    2.9042 C   0  0  0  0  0  0  0  0  0  0  0  0
    1.1719   -3.2575    4.2264 C   0  0  0  0  0  0  0  0  0  0  0  0
    1.8184   -2.9019    5.1905 O   0  0  0  0  0  0  0  0  0  0  0  0
   -0.3769   -3.2074    4.3519 C   0  0  0  0  0  0  0  0  0  0  0  0
   -1.1235   -3.5540    3.4769 O   0  0  0  0  0  0  0  0  0  0  0  0
   -0.7597   -2.7372    5.5356 O   0  0  0  0  0  0  0  0  0  0  0  0
    4.3277   -1.5091    0.7411 C   0  0  0  0  0  0  0  0  0  0  0  0
    4.6817    1.3428   -2.5348 H   0  0  0  0  0  0  0  0  0  0  0  0
    4.9628    2.1091   -0.9393 H   0  0  0  0  0  0  0  0  0  0  0  0
    3.2922    1.7093   -1.4640 H   0  0  0  0  0  0  0  0  0  0  0  0
    3.4939    1.8099    0.8915 H   0  0  0  0  0  0  0  0  0  0  0  0
    2.9342    1.1398    3.2015 H   0  0  0  0  0  0  0  0  0  0  0  0
    3.2617   -1.2075    3.9654 H   0  0  0  0  0  0  0  0  0  0  0  0
    6.3479   -3.1612    2.1276 H   0  0  0  0  0  0  0  0  0  0  0  0
    6.8500   -5.4852    2.8474 H   0  0  0  0  0  0  0  0  0  0  0  0
    4.9884   -6.9704    3.6240 H   0  0  0  0  0  0  0  0  0  0  0  0
    2.6616   -6.1177    3.6316 H   0  0  0  0  0  0  0  0  0  0  0  0
    1.0673   -4.5198    2.5383 H   0  0  0  0  0  0  0  0  0  0  0  0
    1.5547   -2.8778    2.2046 H   0  0  0  0  0  0  0  0  0  0  0  0
    0.0640   -2.5498    6.0337 H   0  0  0  0  0  0  0  0  0  0  0  0
    4.7196   -2.2341    0.0249 H   0  0  0  0  0  0  0  0  0  0  0  0
  1  2  1  0
  1 21  1  0
  1 22  1  0
  1 23  1  0
  2  3  1  0
  3  4  2  0
  3 20  1  0
  4  5  1  0
  4 24  1  0
  5  6  2  0
  5 25  1  0
  6  7  1  0
  6 26  1  0
  7  8  1  0
  7 20  2  0
  8  9  2  0
  8 13  1  0
  9 10  1  0
  9 27  1  0
 10 11  2  0
 10 28  1  0
 11 12  1  0
 11 29  1  0
 12 13  2  0
 12 30  1  0
 13 14  1  0
 14 15  1  0
 14 31  1  0
 14 32  1  0
 15 16  2  0
 15 17  1  0
 17 18  2  0
 17 19  1  0
 19 33  1  0
 20 34  1  0
M  END

