
     RDKit          3D

 43 45  0  0  0  0  0  0  0  0999 V2000
   10.5831  -19.7037    3.8777 C   0  0  0  0  0  0  0  0  0  0  0  0
    9.9769  -18.3879    4.2293 C   0  0  0  0  0  0  0  0  0  0  0  0
    9.4068  -18.1626    5.3889 N   0  0  0  0  0  0  0  0  0  0  0  0
    8.9872  -16.8404    5.2977 O   0  0  0  0  0  0  0  0  0  0  0  0
    9.3482  -16.3958    4.0834 C   0  0  0  0  0  0  0  0  0  0  0  0
    9.0309  -15.0189    3.7054 C   0  0  0  0  0  0  0  0  0  0  0  0
    8.3619  -14.1547    4.5908 C   0  0  0  0  0  0  0  0  0  0  0  0
    8.0757  -12.8487    4.2047 C   0  0  0  0  0  0  0  0  0  0  0  0
    8.4330  -12.3820    2.9298 C   0  0  0  0  0  0  0  0  0  0  0  0
    8.0875  -10.9490    2.5996 C   0  0  0  0  0  0  0  0  0  0  0  0
    7.8345  -10.1444    3.4850 O   0  0  0  0  0  0  0  0  0  0  0  0
    8.0773  -10.6258    1.2705 N   0  0  0  0  0  0  0  0  0  0  0  0
    7.7235   -9.2996    0.8054 C   0  0  0  0  0  0  0  0  0  0  0  0
    6.3663   -9.1649    0.0592 C   0  0  2  0  0  0  0  0  0  0  0  0
    6.1899   -8.0822    0.0682 H   0  0  0  0  0  0  0  0  0  0  0  0
    5.1885   -9.7790    0.8323 C   0  0  0  0  0  0  0  0  0  0  0  0
    6.4419   -9.5124   -1.4318 C   0  0  0  0  0  0  0  0  0  0  0  0
    6.5735   -8.4739   -2.3893 C   0  0  0  0  0  0  0  0  0  0  0  0
    6.7068   -6.7929   -1.8859 Cl  0  0  0  0  0  0  0  0  0  0  0  0
    6.6176   -8.6952   -3.7681 C   0  0  0  0  0  0  0  0  0  0  0  0
    6.5420   -9.9961   -4.2582 C   0  0  0  0  0  0  0  0  0  0  0  0
    6.4388  -11.0592   -3.3657 C   0  0  0  0  0  0  0  0  0  0  0  0
    6.3999  -10.8099   -1.9902 C   0  0  0  0  0  0  0  0  0  0  0  0
    6.3204  -12.2592   -0.9851 Cl  0  0  0  0  0  0  0  0  0  0  0  0
    9.1132  -13.2458    2.0546 C   0  0  0  0  0  0  0  0  0  0  0  0
    9.4102  -14.5523    2.4354 C   0  0  0  0  0  0  0  0  0  0  0  0
    9.9621  -17.3075    3.3807 N   0  0  0  0  0  0  0  0  0  0  0  0
   10.4712  -20.4105    4.7099 H   0  0  0  0  0  0  0  0  0  0  0  0
   11.6525  -19.5800    3.6465 H   0  0  0  0  0  0  0  0  0  0  0  0
   10.0982  -20.1181    2.9801 H   0  0  0  0  0  0  0  0  0  0  0  0
    8.0734  -14.5134    5.5804 H   0  0  0  0  0  0  0  0  0  0  0  0
    7.5717  -12.1574    4.8821 H   0  0  0  0  0  0  0  0  0  0  0  0
    8.1190  -11.3756    0.5917 H   0  0  0  0  0  0  0  0  0  0  0  0
    8.5255   -8.9001    0.1614 H   0  0  0  0  0  0  0  0  0  0  0  0
    7.6814   -8.6736    1.7075 H   0  0  0  0  0  0  0  0  0  0  0  0
    4.2385   -9.5958    0.3067 H   0  0  0  0  0  0  0  0  0  0  0  0
    5.1260   -9.3069    1.8250 H   0  0  0  0  0  0  0  0  0  0  0  0
    5.2889  -10.8601    0.9857 H   0  0  0  0  0  0  0  0  0  0  0  0
    6.7119   -7.8427   -4.4415 H   0  0  0  0  0  0  0  0  0  0  0  0
    6.5715  -10.1822   -5.3341 H   0  0  0  0  0  0  0  0  0  0  0  0
    6.3934  -12.0898   -3.7193 H   0  0  0  0  0  0  0  0  0  0  0  0
    9.4427  -12.8979    1.0730 H   0  0  0  0  0  0  0  0  0  0  0  0
    9.9436  -15.2258    1.7625 H   0  0  0  0  0  0  0  0  0  0  0  0
  1  2  1  0
  1 28  1  0
  1 29  1  0
  1 30  1  0
  2  3  2  0
  2 27  1  0
  3  4  1  0
  4  5  1  0
  5  6  1  0
  5 27  2  0
  6  7  2  0
  6 26  1  0
  7  8  1  0
  7 31  1  0
  8  9  2  0
  8 32  1  0
  9 10  1  0
  9 25  1  0
 10 11  2  0
 10 12  1  0
 12 13  1  0
 12 33  1  0
 13 14  1  0
 13 34  1  0
 13 35  1  0
 14 15  1  6
 14 16  1  0
 14 17  1  0
 16 36  1  0
 16 37  1  0
 16 38  1  0
 17 18  2  0
 17 23  1  0
 18 19  1  0
 18 20  1  0
 20 21  2  0
 20 39  1  0
 21 22  1  0
 21 40  1  0
 22 23  2  0
 22 41  1  0
 23 24  1  0
 25 26  2  0
 25 42  1  0
 26 43  1  0
M  END

