
     RDKit          3D

 59 60  0  0  0  0  0  0  0  0999 V2000
    9.9935    2.9469    1.0829 C   0  0  0  0  0  0  0  0  0  0  0  0
    8.9649    1.8205    1.1932 C   0  0  0  0  0  0  0  0  0  0  0  0
    9.1376    0.7371    0.1255 C   0  0  0  0  0  0  0  0  0  0  0  0
    8.1157   -0.3845    0.2346 C   0  0  0  0  0  0  0  0  0  0  0  0
    8.3477   -1.3255   -0.7875 O   0  0  0  0  0  0  0  0  0  0  0  0
    7.4572   -2.4135   -0.7946 C   0  0  0  0  0  0  0  0  0  0  0  0
    7.8215   -3.3502   -1.9379 C   0  0  0  0  0  0  0  0  0  0  0  0
    9.2464   -3.9054   -1.8197 C   0  0  0  0  0  0  0  0  0  0  0  0
    9.5903   -4.8448   -2.8731 N   0  0  0  0  0  0  0  0  0  0  0  0
   10.3484   -4.4938   -3.9548 C   0  0  0  0  0  0  0  0  0  0  0  0
   10.8177   -3.3770   -4.1097 O   0  0  0  0  0  0  0  0  0  0  0  0
   10.5846   -5.5830   -4.9764 C   0  0  0  0  0  0  0  0  0  0  0  0
   10.9394   -5.1856   -6.2747 C   0  0  0  0  0  0  0  0  0  0  0  0
   11.1590   -6.1351   -7.2742 C   0  0  0  0  0  0  0  0  0  0  0  0
   11.0555   -7.4991   -6.9869 C   0  0  0  0  0  0  0  0  0  0  0  0
   10.7450   -7.8936   -5.6812 C   0  0  0  0  0  0  0  0  0  0  0  0
   10.6741   -9.6490   -5.2698 S   0  0  1  0  0  0  0  0  0  0  0  0
    9.9476   -9.7526   -4.0008 O   0  0  0  0  0  0  0  0  0  0  0  0
   10.2291  -10.3519   -6.4744 O   0  0  0  0  0  0  0  0  0  0  0  0
   12.2459  -10.1478   -4.9690 N   0  0  0  0  0  0  0  0  0  0  0  0
   13.1125  -10.4763   -6.0989 C   0  0  0  0  0  0  0  0  0  0  0  0
   13.9967  -11.7071   -5.8615 C   0  0  0  0  0  0  0  0  0  0  0  0
   15.0744  -11.5298   -4.7815 C   0  0  0  0  0  0  0  0  0  0  0  0
   14.6251  -11.7311   -3.3231 C   0  0  0  0  0  0  0  0  0  0  0  0
   13.2850  -11.0858   -2.9027 C   0  0  0  0  0  0  0  0  0  0  0  0
   12.8476   -9.8301   -3.6694 C   0  0  0  0  0  0  0  0  0  0  0  0
   10.4981   -6.9505   -4.6801 C   0  0  0  0  0  0  0  0  0  0  0  0
    9.8429    3.7098    1.8633 H   0  0  0  0  0  0  0  0  0  0  0  0
    9.9297    3.4526    0.1050 H   0  0  0  0  0  0  0  0  0  0  0  0
   11.0216    2.5616    1.1868 H   0  0  0  0  0  0  0  0  0  0  0  0
    7.9466    2.2452    1.1236 H   0  0  0  0  0  0  0  0  0  0  0  0
    9.0301    1.3608    2.1965 H   0  0  0  0  0  0  0  0  0  0  0  0
   10.1479    0.2965    0.1911 H   0  0  0  0  0  0  0  0  0  0  0  0
    9.0605    1.1803   -0.8827 H   0  0  0  0  0  0  0  0  0  0  0  0
    7.0852    0.0248    0.1544 H   0  0  0  0  0  0  0  0  0  0  0  0
    8.1831   -0.8722    1.2315 H   0  0  0  0  0  0  0  0  0  0  0  0
    6.4101   -2.0628   -0.9116 H   0  0  0  0  0  0  0  0  0  0  0  0
    7.5021   -2.9565    0.1756 H   0  0  0  0  0  0  0  0  0  0  0  0
    7.7236   -2.8110   -2.8945 H   0  0  0  0  0  0  0  0  0  0  0  0
    7.0905   -4.1783   -1.9542 H   0  0  0  0  0  0  0  0  0  0  0  0
    9.3760   -4.4016   -0.8411 H   0  0  0  0  0  0  0  0  0  0  0  0
    9.9650   -3.0781   -1.8740 H   0  0  0  0  0  0  0  0  0  0  0  0
    9.1070   -5.7347   -2.8921 H   0  0  0  0  0  0  0  0  0  0  0  0
   11.0294   -4.1166   -6.4766 H   0  0  0  0  0  0  0  0  0  0  0  0
   11.4061   -5.8126   -8.2885 H   0  0  0  0  0  0  0  0  0  0  0  0
   11.1967   -8.2515   -7.7648 H   0  0  0  0  0  0  0  0  0  0  0  0
   13.7613   -9.6104   -6.3478 H   0  0  0  0  0  0  0  0  0  0  0  0
   12.4624  -10.6678   -6.9619 H   0  0  0  0  0  0  0  0  0  0  0  0
   14.4920  -11.9214   -6.8241 H   0  0  0  0  0  0  0  0  0  0  0  0
   13.3566  -12.5787   -5.6404 H   0  0  0  0  0  0  0  0  0  0  0  0
   15.5184  -10.5245   -4.8995 H   0  0  0  0  0  0  0  0  0  0  0  0
   15.9005  -12.2338   -4.9773 H   0  0  0  0  0  0  0  0  0  0  0  0
   15.4327  -11.3533   -2.6728 H   0  0  0  0  0  0  0  0  0  0  0  0
   14.5632  -12.8125   -3.1124 H   0  0  0  0  0  0  0  0  0  0  0  0
   13.3382  -10.8322   -1.8305 H   0  0  0  0  0  0  0  0  0  0  0  0
   12.4591  -11.8080   -3.0010 H   0  0  0  0  0  0  0  0  0  0  0  0
   13.6899   -9.1259   -3.8108 H   0  0  0  0  0  0  0  0  0  0  0  0
   12.0883   -9.3111   -3.0716 H   0  0  0  0  0  0  0  0  0  0  0  0
   10.2444   -7.3077   -3.6808 H   0  0  0  0  0  0  0  0  0  0  0  0
  1  2  1  0
  1 28  1  0
  1 29  1  0
  1 30  1  0
  2  3  1  0
  2 31  1  0
  2 32  1  0
  3  4  1  0
  3 33  1  0
  3 34  1  0
  4  5  1  0
  4 35  1  0
  4 36  1  0
  5  6  1  0
  6  7  1  0
  6 37  1  0
  6 38  1  0
  7  8  1  0
  7 39  1  0
  7 40  1  0
  8  9  1  0
  8 41  1  0
  8 42  1  0
  9 10  1  0
  9 43  1  0
 10 11  2  0
 10 12  1  0
 12 13  2  0
 12 27  1  0
 13 14  1  0
 13 44  1  0
 14 15  2  0
 14 45  1  0
 15 16  1  0
 15 46  1  0
 17 16  1  6
 16 27  2  0
 17 18  2  0
 17 19  2  0
 17 20  1  0
 20 21  1  0
 20 26  1  0
 21 22  1  0
 21 47  1  0
 21 48  1  0
 22 23  1  0
 22 49  1  0
 22 50  1  0
 23 24  1  0
 23 51  1  0
 23 52  1  0
 24 25  1  0
 24 53  1  0
 24 54  1  0
 25 26  1  0
 25 55  1  0
 25 56  1  0
 26 57  1  0
 26 58  1  0
 27 59  1  0
M  END

