
     RDKit          3D

 69 72  0  0  0  0  0  0  0  0999 V2000
    5.1128    0.4270    2.5385 C   0  0  0  0  0  0  0  0  0  0  0  0
    4.4390    0.2469    1.1880 C   0  0  0  0  0  0  0  0  0  0  0  0
    3.2341    0.0867    1.0834 O   0  0  0  0  0  0  0  0  0  0  0  0
    5.2779    0.2844    0.1063 N   0  0  0  0  0  0  0  0  0  0  0  0
    4.8116    0.1051   -1.2456 C   0  0  2  0  0  0  0  0  0  0  0  0
    3.7187    0.0065   -1.1753 H   0  0  0  0  0  0  0  0  0  0  0  0
    5.3410   -1.2087   -1.8571 C   0  0  2  0  0  0  0  0  0  0  0  0
    4.8365   -2.0641   -1.3696 H   0  0  0  0  0  0  0  0  0  0  0  0
    6.7181   -1.2865   -1.6403 O   0  0  0  0  0  0  0  0  0  0  0  0
    7.2913   -2.5857   -1.8329 C   0  0  0  0  0  0  0  0  0  0  0  0
    8.7685   -2.5149   -1.5435 C   0  0  0  0  0  0  0  0  0  0  0  0
    9.2570   -2.7210   -0.2447 C   0  0  0  0  0  0  0  0  0  0  0  0
   10.6239   -2.6190    0.0280 C   0  0  0  0  0  0  0  0  0  0  0  0
   11.5194   -2.3055   -0.9996 C   0  0  0  0  0  0  0  0  0  0  0  0
   11.0417   -2.0959   -2.2977 C   0  0  0  0  0  0  0  0  0  0  0  0
    9.6742   -2.1993   -2.5686 C   0  0  0  0  0  0  0  0  0  0  0  0
    4.9686   -1.3311   -3.2195 O   0  0  0  0  0  0  0  0  0  0  0  0
    5.2970   -0.2550   -4.1121 C   0  0  2  0  0  0  0  0  0  0  0  0
    6.7872   -0.1858   -4.4789 C   0  0  0  0  0  0  0  0  0  0  0  0
    7.2642   -1.4198   -4.9801 O   0  0  0  0  0  0  0  0  0  0  0  0
    7.0076   -1.6806   -6.3482 C   0  0  0  0  0  0  0  0  0  0  0  0
    7.0166   -3.1691   -6.6036 C   0  0  0  0  0  0  0  0  0  0  0  0
    6.2188   -4.0173   -5.8176 C   0  0  0  0  0  0  0  0  0  0  0  0
    6.1943   -5.3914   -6.0615 C   0  0  0  0  0  0  0  0  0  0  0  0
    6.9647   -5.9375   -7.0952 C   0  0  0  0  0  0  0  0  0  0  0  0
    7.7616   -5.1011   -7.8800 C   0  0  0  0  0  0  0  0  0  0  0  0
    7.7894   -3.7243   -7.6309 C   0  0  0  0  0  0  0  0  0  0  0  0
    4.6903    1.0540   -3.5865 C   0  0  1  0  0  0  0  0  0  0  0  0
    5.0261    1.8937   -4.2172 H   0  0  0  0  0  0  0  0  0  0  0  0
    3.2783    1.0171   -3.6879 O   0  0  0  0  0  0  0  0  0  0  0  0
    5.1041    1.3331   -2.1234 C   0  0  2  0  0  0  0  0  0  0  0  0
    4.4825    2.1682   -1.7538 H   0  0  0  0  0  0  0  0  0  0  0  0
    6.4778    1.6630   -2.0183 O   0  0  0  0  0  0  0  0  0  0  0  0
    6.7887    3.0368   -2.0538 C   0  0  0  0  0  0  0  0  0  0  0  0
    8.2799    3.2468   -1.9062 C   0  0  0  0  0  0  0  0  0  0  0  0
    9.1472    2.1838   -1.6218 C   0  0  0  0  0  0  0  0  0  0  0  0
   10.5201    2.4137   -1.4741 C   0  0  0  0  0  0  0  0  0  0  0  0
   11.0393    3.7036   -1.6049 C   0  0  0  0  0  0  0  0  0  0  0  0
   10.1772    4.7692   -1.8885 C   0  0  0  0  0  0  0  0  0  0  0  0
    8.8085    4.5407   -2.0395 C   0  0  0  0  0  0  0  0  0  0  0  0
    4.8826   -0.4475    3.1657 H   0  0  0  0  0  0  0  0  0  0  0  0
    4.6725    1.3044    3.0361 H   0  0  0  0  0  0  0  0  0  0  0  0
    6.2034    0.5547    2.4786 H   0  0  0  0  0  0  0  0  0  0  0  0
    6.2793    0.3734    0.2295 H   0  0  0  0  0  0  0  0  0  0  0  0
    7.1185   -2.9125   -2.8693 H   0  0  0  0  0  0  0  0  0  0  0  0
    6.7949   -3.3017   -1.1497 H   0  0  0  0  0  0  0  0  0  0  0  0
    8.5586   -2.9689    0.5601 H   0  0  0  0  0  0  0  0  0  0  0  0
   10.9922   -2.7879    1.0433 H   0  0  0  0  0  0  0  0  0  0  0  0
   12.5897   -2.2303   -0.7896 H   0  0  0  0  0  0  0  0  0  0  0  0
   11.7387   -1.8549   -3.1047 H   0  0  0  0  0  0  0  0  0  0  0  0
    9.2930   -2.0366   -3.5804 H   0  0  0  0  0  0  0  0  0  0  0  0
    4.7339   -0.5036   -5.0264 H   0  0  0  0  0  0  0  0  0  0  0  0
    7.3933    0.0570   -3.6007 H   0  0  0  0  0  0  0  0  0  0  0  0
    6.9250    0.6257   -5.2208 H   0  0  0  0  0  0  0  0  0  0  0  0
    7.7612   -1.1759   -6.9844 H   0  0  0  0  0  0  0  0  0  0  0  0
    6.0197   -1.2717   -6.6394 H   0  0  0  0  0  0  0  0  0  0  0  0
    5.6208   -3.5873   -5.0097 H   0  0  0  0  0  0  0  0  0  0  0  0
    5.5700   -6.0420   -5.4433 H   0  0  0  0  0  0  0  0  0  0  0  0
    6.9445   -7.0138   -7.2853 H   0  0  0  0  0  0  0  0  0  0  0  0
    8.3706   -5.5203   -8.6852 H   0  0  0  0  0  0  0  0  0  0  0  0
    8.4228   -3.0746   -8.2420 H   0  0  0  0  0  0  0  0  0  0  0  0
    2.9881    0.1331   -3.4200 H   0  0  0  0  0  0  0  0  0  0  0  0
    6.2542    3.5648   -1.2365 H   0  0  0  0  0  0  0  0  0  0  0  0
    6.4435    3.5010   -3.0002 H   0  0  0  0  0  0  0  0  0  0  0  0
    8.7440    1.1750   -1.5223 H   0  0  0  0  0  0  0  0  0  0  0  0
   11.1837    1.5726   -1.2572 H   0  0  0  0  0  0  0  0  0  0  0  0
   12.1116    3.8809   -1.4891 H   0  0  0  0  0  0  0  0  0  0  0  0
   10.5738    5.7823   -1.9953 H   0  0  0  0  0  0  0  0  0  0  0  0
    8.1416    5.3792   -2.2649 H   0  0  0  0  0  0  0  0  0  0  0  0
  1  2  1  0
  1 41  1  0
  1 42  1  0
  1 43  1  0
  2  3  2  0
  2  4  1  0
  4  5  1  0
  4 44  1  0
  5  6  1  1
  5  7  1  0
  5 31  1  0
  7  8  1  1
  7  9  1  0
  7 17  1  0
  9 10  1  0
 10 11  1  0
 10 45  1  0
 10 46  1  0
 11 12  2  0
 11 16  1  0
 12 13  1  0
 12 47  1  0
 13 14  2  0
 13 48  1  0
 14 15  1  0
 14 49  1  0
 15 16  2  0
 15 50  1  0
 16 51  1  0
 17 18  1  0
 18 19  1  0
 18 28  1  0
 18 52  1  6
 19 20  1  0
 19 53  1  0
 19 54  1  0
 20 21  1  0
 21 22  1  0
 21 55  1  0
 21 56  1  0
 22 23  2  0
 22 27  1  0
 23 24  1  0
 23 57  1  0
 24 25  2  0
 24 58  1  0
 25 26  1  0
 25 59  1  0
 26 27  2  0
 26 60  1  0
 27 61  1  0
 28 29  1  6
 28 30  1  0
 28 31  1  0
 30 62  1  0
 31 32  1  1
 31 33  1  0
 33 34  1  0
 34 35  1  0
 34 63  1  0
 34 64  1  0
 35 36  2  0
 35 40  1  0
 36 37  1  0
 36 65  1  0
 37 38  2  0
 37 66  1  0
 38 39  1  0
 38 67  1  0
 39 40  2  0
 39 68  1  0
 40 69  1  0
M  END

