
     RDKit          3D

 20 21  0  0  0  0  0  0  0  0999 V2000
    1.4070   -0.3208   -0.9561 C   0  0  0  0  0  0  0  0  0  0  0  0
    2.4297    0.1476    0.0565 C   0  0  0  0  0  0  0  0  0  0  0  0
    2.7701    1.3091    0.1494 O   0  0  0  0  0  0  0  0  0  0  0  0
    3.0337   -0.8703    0.9711 C   0  0  0  0  0  0  0  0  0  0  0  0
    3.9679   -0.5776    1.9311 C   0  0  0  0  0  0  0  0  0  0  0  0
    4.3843   -1.7289    2.6718 C   0  0  0  0  0  0  0  0  0  0  0  0
    5.3054   -1.8660    3.7219 C   0  0  0  0  0  0  0  0  0  0  0  0
    5.5094   -3.1419    4.2585 C   0  0  0  0  0  0  0  0  0  0  0  0
    6.4361   -3.3527    5.3330 C   0  0  0  0  0  0  0  0  0  0  0  0
    7.1843   -3.5319    6.2025 N   0  0  0  0  0  0  0  0  0  0  0  0
    4.7839   -4.2442    3.7266 C   0  0  0  0  0  0  0  0  0  0  0  0
    3.9116   -4.1317    2.7363 N   0  0  0  0  0  0  0  0  0  0  0  0
    3.7253   -2.9158    2.2340 C   0  0  0  0  0  0  0  0  0  0  0  0
    2.6124   -2.5808    0.9236 S   0  0  0  0  0  0  0  0  0  0  0  0
    1.0721    0.5355   -1.5549 H   0  0  0  0  0  0  0  0  0  0  0  0
    0.5408   -0.7771   -0.4483 H   0  0  0  0  0  0  0  0  0  0  0  0
    1.8378   -1.0902   -1.6183 H   0  0  0  0  0  0  0  0  0  0  0  0
    4.3309    0.4394    2.0836 H   0  0  0  0  0  0  0  0  0  0  0  0
    5.8500   -1.0036    4.1126 H   0  0  0  0  0  0  0  0  0  0  0  0
    4.9418   -5.2437    4.1449 H   0  0  0  0  0  0  0  0  0  0  0  0
  1  2  1  0
  1 15  1  0
  1 16  1  0
  1 17  1  0
  2  3  2  0
  2  4  1  0
  4  5  2  0
  4 14  1  0
  5  6  1  0
  5 18  1  0
  6  7  2  0
  6 13  1  0
  7  8  1  0
  7 19  1  0
  8  9  1  0
  8 11  2  0
  9 10  3  0
 11 12  1  0
 11 20  1  0
 12 13  2  0
 13 14  1  0
M  END

