
     RDKit          3D

 53 55  0  0  0  0  0  0  0  0999 V2000
    1.0371   -0.7599   -2.2334 C   0  0  0  0  0  0  0  0  0  0  0  0
    2.5620   -0.7765   -2.1298 C   0  0  0  0  0  0  0  0  0  0  0  0
    3.0857   -1.3743   -0.8994 N   0  0  0  0  0  0  0  0  0  0  0  0
    2.6826   -2.7725   -0.7258 C   0  0  0  0  0  0  0  0  0  0  0  0
    3.2613   -3.7990   -1.7135 C   0  0  0  0  0  0  0  0  0  0  0  0
    4.5183   -1.0789   -0.6928 C   0  0  2  0  0  0  0  0  0  0  0  0
    5.1401   -1.8291    0.5005 C   0  0  0  0  0  0  0  0  0  0  0  0
    4.6378   -1.2866    1.8357 C   0  0  0  0  0  0  0  0  0  0  0  0
    4.9213    0.0919    1.9762 O   0  0  0  0  0  0  0  0  0  0  0  0
    4.4044    0.9585    0.9502 C   0  0  1  0  0  0  0  0  0  0  0  0
    2.8784    1.1441    1.1195 C   0  0  0  0  0  0  0  0  0  0  0  0
    2.5186    1.8009    2.4554 C   0  0  0  0  0  0  0  0  0  0  0  0
    3.2224    3.0744    2.6072 N   0  0  0  0  0  0  0  0  0  0  0  0
    2.4940    4.2065    2.8376 C   0  0  0  0  0  0  0  0  0  0  0  0
    1.2846    4.1806    3.0501 O   0  0  0  0  0  0  0  0  0  0  0  0
    3.1679    5.5703    2.8172 C   0  0  0  0  0  0  0  0  0  0  0  0
    2.5930    6.5734    3.6154 C   0  0  0  0  0  0  0  0  0  0  0  0
    3.1203    7.8616    3.5566 C   0  0  0  0  0  0  0  0  0  0  0  0
    4.1846    8.1142    2.6867 C   0  0  0  0  0  0  0  0  0  0  0  0
    4.6759    7.0548    1.9193 C   0  0  0  0  0  0  0  0  0  0  0  0
    4.1877    5.8136    1.9847 N   0  0  0  0  0  0  0  0  0  0  0  0
    4.6765    2.9367    2.5375 C   0  0  0  0  0  0  0  0  0  0  0  0
    5.0954    2.3105    1.2055 C   0  0  0  0  0  0  0  0  0  0  0  0
    4.8027    0.4237   -0.4424 C   0  0  0  0  0  0  0  0  0  0  0  0
    0.7310   -0.1607   -3.1056 H   0  0  0  0  0  0  0  0  0  0  0  0
    0.5879   -0.3092   -1.3342 H   0  0  0  0  0  0  0  0  0  0  0  0
    0.6035   -1.7632   -2.3648 H   0  0  0  0  0  0  0  0  0  0  0  0
    2.9071    0.2651   -2.1734 H   0  0  0  0  0  0  0  0  0  0  0  0
    2.9869   -1.2632   -3.0377 H   0  0  0  0  0  0  0  0  0  0  0  0
    1.5841   -2.8086   -0.7820 H   0  0  0  0  0  0  0  0  0  0  0  0
    2.9175   -3.0850    0.3025 H   0  0  0  0  0  0  0  0  0  0  0  0
    2.9824   -3.5748   -2.7552 H   0  0  0  0  0  0  0  0  0  0  0  0
    2.8761   -4.8051   -1.4803 H   0  0  0  0  0  0  0  0  0  0  0  0
    4.3612   -3.8479   -1.6686 H   0  0  0  0  0  0  0  0  0  0  0  0
    5.0952   -1.3636   -1.6022 H   0  0  0  0  0  0  0  0  0  0  0  0
    6.2303   -1.6708    0.4553 H   0  0  0  0  0  0  0  0  0  0  0  0
    4.9850   -2.9160    0.4444 H   0  0  0  0  0  0  0  0  0  0  0  0
    5.1514   -1.7851    2.6731 H   0  0  0  0  0  0  0  0  0  0  0  0
    3.5548   -1.4855    1.9513 H   0  0  0  0  0  0  0  0  0  0  0  0
    2.3649    0.1783    1.0150 H   0  0  0  0  0  0  0  0  0  0  0  0
    2.5117    1.7794    0.2957 H   0  0  0  0  0  0  0  0  0  0  0  0
    2.8017    1.1320    3.2874 H   0  0  0  0  0  0  0  0  0  0  0  0
    1.4433    2.0004    2.5286 H   0  0  0  0  0  0  0  0  0  0  0  0
    1.7403    6.3228    4.2468 H   0  0  0  0  0  0  0  0  0  0  0  0
    2.7019    8.6612    4.1735 H   0  0  0  0  0  0  0  0  0  0  0  0
    4.6249    9.1101    2.5990 H   0  0  0  0  0  0  0  0  0  0  0  0
    5.5036    7.2168    1.2188 H   0  0  0  0  0  0  0  0  0  0  0  0
    5.0000    2.2757    3.3605 H   0  0  0  0  0  0  0  0  0  0  0  0
    5.1524    3.9118    2.6598 H   0  0  0  0  0  0  0  0  0  0  0  0
    6.1862    2.1531    1.2020 H   0  0  0  0  0  0  0  0  0  0  0  0
    4.8484    3.0095    0.3899 H   0  0  0  0  0  0  0  0  0  0  0  0
    5.8927    0.5571   -0.5470 H   0  0  0  0  0  0  0  0  0  0  0  0
    4.3491    1.0617   -1.2141 H   0  0  0  0  0  0  0  0  0  0  0  0
  1  2  1  0
  1 25  1  0
  1 26  1  0
  1 27  1  0
  2  3  1  0
  2 28  1  0
  2 29  1  0
  3  4  1  0
  3  6  1  0
  4  5  1  0
  4 30  1  0
  4 31  1  0
  5 32  1  0
  5 33  1  0
  5 34  1  0
  6  7  1  0
  6 24  1  0
  6 35  1  6
  7  8  1  0
  7 36  1  0
  7 37  1  0
  8  9  1  0
  8 38  1  0
  8 39  1  0
 10  9  1  1
 10 11  1  0
 10 23  1  0
 10 24  1  0
 11 12  1  0
 11 40  1  0
 11 41  1  0
 12 13  1  0
 12 42  1  0
 12 43  1  0
 13 14  1  0
 13 22  1  0
 14 15  2  0
 14 16  1  0
 16 17  2  0
 16 21  1  0
 17 18  1  0
 17 44  1  0
 18 19  2  0
 18 45  1  0
 19 20  1  0
 19 46  1  0
 20 21  2  0
 20 47  1  0
 22 23  1  0
 22 48  1  0
 22 49  1  0
 23 50  1  0
 23 51  1  0
 24 52  1  0
 24 53  1  0
M  END

