
     RDKit          3D

 74 78  0  0  0  0  0  0  0  0999 V2000
    2.3022    2.9879   -1.6002 N   0  0  0  0  0  0  0  0  0  0  0  0
    2.9602    2.2284   -1.0151 C   0  0  0  0  0  0  0  0  0  0  0  0
    3.7714    1.3218   -0.2573 C   0  0  0  0  0  0  0  0  0  0  0  0
    4.0671    1.7906    1.0665 C   0  0  0  0  0  0  0  0  0  0  0  0
    4.2648    2.2138    2.1309 N   0  0  0  0  0  0  0  0  0  0  0  0
    4.2189    0.0976   -0.7381 C   0  0  0  0  0  0  0  0  0  0  0  0
    3.8274   -0.4934   -2.0092 C   0  0  0  0  0  0  0  0  0  0  0  0
    2.7191   -0.2237   -2.7533 C   0  0  0  0  0  0  0  0  0  0  0  0
    2.3546   -0.8330   -4.0234 C   0  0  0  0  0  0  0  0  0  0  0  0
    3.1584   -1.7710   -4.7113 C   0  0  0  0  0  0  0  0  0  0  0  0
    2.7593   -2.3157   -5.9225 C   0  0  0  0  0  0  0  0  0  0  0  0
    1.5274   -1.9497   -6.5098 C   0  0  0  0  0  0  0  0  0  0  0  0
    1.1230   -2.5184   -7.7357 N   0  0  0  0  0  0  0  0  0  0  0  0
    1.4475   -3.8826   -8.0154 C   0  0  0  0  0  0  0  0  0  0  0  0
    1.1376   -4.8890   -7.0862 C   0  0  0  0  0  0  0  0  0  0  0  0
    1.4621   -6.2191   -7.3600 C   0  0  0  0  0  0  0  0  0  0  0  0
    2.0836   -6.5619   -8.5653 C   0  0  0  0  0  0  0  0  0  0  0  0
    2.3859   -5.5615   -9.4948 C   0  0  0  0  0  0  0  0  0  0  0  0
    2.0779   -4.2273   -9.2219 C   0  0  0  0  0  0  0  0  0  0  0  0
    0.4091   -1.7699   -8.6964 C   0  0  0  0  0  0  0  0  0  0  0  0
    0.6932   -0.4084   -8.9214 C   0  0  0  0  0  0  0  0  0  0  0  0
   -0.0132    0.3086   -9.8793 C   0  0  0  0  0  0  0  0  0  0  0  0
   -1.0248   -0.2909  -10.6621 C   0  0  0  0  0  0  0  0  0  0  0  0
   -1.7153    0.5187  -11.6556 C   0  0  0  0  0  0  0  0  0  0  0  0
   -2.7406    0.1235  -12.4588 C   0  0  0  0  0  0  0  0  0  0  0  0
   -3.4452    0.9147  -13.4577 C   0  0  0  0  0  0  0  0  0  0  0  0
   -2.9169    2.0266  -14.1002 C   0  0  0  0  0  0  0  0  0  0  0  0
   -3.6950    2.8671  -14.9651 C   0  0  0  0  0  0  0  0  0  0  0  0
   -4.2799    3.5878  -15.6649 N   0  0  0  0  0  0  0  0  0  0  0  0
   -1.5564    2.4560  -13.9583 C   0  0  0  0  0  0  0  0  0  0  0  0
   -0.4601    2.8330  -13.8703 N   0  0  0  0  0  0  0  0  0  0  0  0
   -4.8182    0.4437  -13.7911 C   0  0  0  0  0  0  0  0  0  0  0  0
   -5.2482    0.3022  -15.1237 C   0  0  0  0  0  0  0  0  0  0  0  0
   -6.5309   -0.1682  -15.4093 C   0  0  0  0  0  0  0  0  0  0  0  0
   -7.4083   -0.4963  -14.3719 C   0  0  0  0  0  0  0  0  0  0  0  0
   -6.9928   -0.3629  -13.0432 C   0  0  0  0  0  0  0  0  0  0  0  0
   -5.7057    0.0920  -12.7549 C   0  0  0  0  0  0  0  0  0  0  0  0
   -1.2947   -1.6591  -10.4312 C   0  0  0  0  0  0  0  0  0  0  0  0
   -0.6002   -2.3817   -9.4725 C   0  0  0  0  0  0  0  0  0  0  0  0
    0.7154   -1.0174   -5.8332 C   0  0  0  0  0  0  0  0  0  0  0  0
    1.1273   -0.4728   -4.6234 C   0  0  0  0  0  0  0  0  0  0  0  0
    5.1871   -0.7024    0.0633 C   0  0  0  0  0  0  0  0  0  0  0  0
    4.9760   -2.0842    0.2386 C   0  0  0  0  0  0  0  0  0  0  0  0
    5.8762   -2.8546    0.9754 C   0  0  0  0  0  0  0  0  0  0  0  0
    7.0151   -2.2629    1.5310 C   0  0  0  0  0  0  0  0  0  0  0  0
    7.2453   -0.8963    1.3490 C   0  0  0  0  0  0  0  0  0  0  0  0
    6.3382   -0.1201    0.6259 C   0  0  0  0  0  0  0  0  0  0  0  0
    4.5123   -1.2693   -2.3606 H   0  0  0  0  0  0  0  0  0  0  0  0
    1.9980    0.5079   -2.3837 H   0  0  0  0  0  0  0  0  0  0  0  0
    4.1257   -2.0680   -4.3009 H   0  0  0  0  0  0  0  0  0  0  0  0
    3.4074   -3.0274   -6.4359 H   0  0  0  0  0  0  0  0  0  0  0  0
    0.6406   -4.6227   -6.1511 H   0  0  0  0  0  0  0  0  0  0  0  0
    1.2158   -6.9945   -6.6303 H   0  0  0  0  0  0  0  0  0  0  0  0
    2.3311   -7.6043   -8.7793 H   0  0  0  0  0  0  0  0  0  0  0  0
    2.8772   -5.8184  -10.4366 H   0  0  0  0  0  0  0  0  0  0  0  0
    2.3257   -3.4448   -9.9421 H   0  0  0  0  0  0  0  0  0  0  0  0
    1.4811    0.0831   -8.3488 H   0  0  0  0  0  0  0  0  0  0  0  0
    0.2340    1.3604  -10.0458 H   0  0  0  0  0  0  0  0  0  0  0  0
   -1.3583    1.5485  -11.7229 H   0  0  0  0  0  0  0  0  0  0  0  0
   -3.1355   -0.8890  -12.3411 H   0  0  0  0  0  0  0  0  0  0  0  0
   -4.5688    0.5425  -15.9431 H   0  0  0  0  0  0  0  0  0  0  0  0
   -6.8448   -0.2793  -16.4499 H   0  0  0  0  0  0  0  0  0  0  0  0
   -8.4144   -0.8583  -14.5982 H   0  0  0  0  0  0  0  0  0  0  0  0
   -7.6748   -0.6131  -12.2268 H   0  0  0  0  0  0  0  0  0  0  0  0
   -5.3893    0.2009  -11.7149 H   0  0  0  0  0  0  0  0  0  0  0  0
   -2.0695   -2.1692  -11.0072 H   0  0  0  0  0  0  0  0  0  0  0  0
   -0.8370   -3.4343   -9.3106 H   0  0  0  0  0  0  0  0  0  0  0  0
   -0.2466   -0.7277   -6.2581 H   0  0  0  0  0  0  0  0  0  0  0  0
    0.4787    0.2454   -4.1148 H   0  0  0  0  0  0  0  0  0  0  0  0
    4.0844   -2.5511   -0.1867 H   0  0  0  0  0  0  0  0  0  0  0  0
    5.6869   -3.9215    1.1176 H   0  0  0  0  0  0  0  0  0  0  0  0
    7.7236   -2.8672    2.1030 H   0  0  0  0  0  0  0  0  0  0  0  0
    8.1378   -0.4287    1.7715 H   0  0  0  0  0  0  0  0  0  0  0  0
    6.5362    0.9431    0.4806 H   0  0  0  0  0  0  0  0  0  0  0  0
  1  2  3  0
  2  3  1  0
  3  4  1  0
  3  6  2  0
  4  5  3  0
  6  7  1  0
  6 42  1  0
  7  8  2  0
  7 48  1  0
  8  9  1  0
  8 49  1  0
  9 10  2  0
  9 41  1  0
 10 11  1  0
 10 50  1  0
 11 12  2  0
 11 51  1  0
 12 13  1  0
 12 40  1  0
 13 14  1  0
 13 20  1  0
 14 15  2  0
 14 19  1  0
 15 16  1  0
 15 52  1  0
 16 17  2  0
 16 53  1  0
 17 18  1  0
 17 54  1  0
 18 19  2  0
 18 55  1  0
 19 56  1  0
 20 21  2  0
 20 39  1  0
 21 22  1  0
 21 57  1  0
 22 23  2  0
 22 58  1  0
 23 24  1  0
 23 38  1  0
 24 25  2  0
 24 59  1  0
 25 26  1  0
 25 60  1  0
 26 27  2  0
 26 32  1  0
 27 28  1  0
 27 30  1  0
 28 29  3  0
 30 31  3  0
 32 33  2  0
 32 37  1  0
 33 34  1  0
 33 61  1  0
 34 35  2  0
 34 62  1  0
 35 36  1  0
 35 63  1  0
 36 37  2  0
 36 64  1  0
 37 65  1  0
 38 39  2  0
 38 66  1  0
 39 67  1  0
 40 41  2  0
 40 68  1  0
 41 69  1  0
 42 43  2  0
 42 47  1  0
 43 44  1  0
 43 70  1  0
 44 45  2  0
 44 71  1  0
 45 46  1  0
 45 72  1  0
 46 47  2  0
 46 73  1  0
 47 74  1  0
M  END

