
     RDKit          3D

 48 50  0  0  0  0  0  0  0  0999 V2000
    5.5005    4.3916    4.7821 C   0  0  0  0  0  0  0  0  0  0  0  0
    5.3749    3.3863    3.6852 C   0  0  0  0  0  0  0  0  0  0  0  0
    6.2269    3.2200    2.6943 N   0  0  0  0  0  0  0  0  0  0  0  0
    5.7145    2.2026    1.9439 C   0  0  0  0  0  0  0  0  0  0  0  0
    6.4736    1.6155    0.4551 S   0  0  1  0  0  0  0  0  0  0  0  0
    5.7102    0.4394    0.0307 O   0  0  0  0  0  0  0  0  0  0  0  0
    6.6633    2.7665   -0.4345 O   0  0  0  0  0  0  0  0  0  0  0  0
    7.9648    1.0542    0.9752 N   0  0  0  0  0  0  0  0  0  0  0  0
    9.1272    1.9150    0.8504 C   0  0  0  0  0  0  0  0  0  0  0  0
   10.2834    1.0930    0.2616 C   0  0  0  0  0  0  0  0  0  0  0  0
   10.0611   -0.0741   -0.0448 O   0  0  0  0  0  0  0  0  0  0  0  0
   11.5338    1.6422    0.1113 N   0  0  0  0  0  0  0  0  0  0  0  0
   12.5391    0.7857   -0.5373 C   0  0  0  0  0  0  0  0  0  0  0  0
   12.7652    1.2299   -1.9846 C   0  0  0  0  0  0  0  0  0  0  0  0
   13.1857    2.7017   -2.0407 C   0  0  0  0  0  0  0  0  0  0  0  0
   12.2497    3.6098   -1.2280 C   0  0  2  0  0  0  0  0  0  0  0  0
   12.8174    5.0341   -1.1344 C   0  0  0  0  0  0  0  0  0  0  0  0
   12.0482    5.8876   -0.3183 O   0  0  0  0  0  0  0  0  0  0  0  0
   11.9342    5.4032    1.0012 C   0  0  0  0  0  0  0  0  0  0  0  0
   11.2182    4.0502    1.0374 C   0  0  0  0  0  0  0  0  0  0  0  0
   12.0059    3.0416    0.1941 C   0  0  1  0  0  0  0  0  0  0  0  0
    4.5346    1.7330    2.4707 C   0  0  0  0  0  0  0  0  0  0  0  0
    4.3200    2.5019    3.5915 N   0  0  0  0  0  0  0  0  0  0  0  0
    3.1930    2.4047    4.5011 C   0  0  0  0  0  0  0  0  0  0  0  0
    6.4220    4.9652    4.6218 H   0  0  0  0  0  0  0  0  0  0  0  0
    5.5541    3.9164    5.7765 H   0  0  0  0  0  0  0  0  0  0  0  0
    4.6515    5.0961    4.7966 H   0  0  0  0  0  0  0  0  0  0  0  0
    8.1451    0.1164    0.5989 H   0  0  0  0  0  0  0  0  0  0  0  0
    9.4093    2.3252    1.8311 H   0  0  0  0  0  0  0  0  0  0  0  0
    8.8957    2.7647    0.1894 H   0  0  0  0  0  0  0  0  0  0  0  0
   12.1858   -0.2491   -0.4874 H   0  0  0  0  0  0  0  0  0  0  0  0
   13.4797    0.8642    0.0371 H   0  0  0  0  0  0  0  0  0  0  0  0
   11.8301    1.0746   -2.5491 H   0  0  0  0  0  0  0  0  0  0  0  0
   13.5321    0.5924   -2.4555 H   0  0  0  0  0  0  0  0  0  0  0  0
   13.2382    3.0537   -3.0849 H   0  0  0  0  0  0  0  0  0  0  0  0
   14.2092    2.7959   -1.6310 H   0  0  0  0  0  0  0  0  0  0  0  0
   11.2655    3.6641   -1.7288 H   0  0  0  0  0  0  0  0  0  0  0  0
   12.8560    5.4957   -2.1332 H   0  0  0  0  0  0  0  0  0  0  0  0
   13.8606    4.9827   -0.7517 H   0  0  0  0  0  0  0  0  0  0  0  0
   11.3625    6.1528    1.5681 H   0  0  0  0  0  0  0  0  0  0  0  0
   12.9388    5.3203    1.4698 H   0  0  0  0  0  0  0  0  0  0  0  0
   10.2097    4.2096    0.6355 H   0  0  0  0  0  0  0  0  0  0  0  0
   11.1241    3.7065    2.0795 H   0  0  0  0  0  0  0  0  0  0  0  0
   13.0014    2.9646    0.6755 H   0  0  0  0  0  0  0  0  0  0  0  0
    3.8645    0.9427    2.1449 H   0  0  0  0  0  0  0  0  0  0  0  0
    2.5280    1.5983    4.1667 H   0  0  0  0  0  0  0  0  0  0  0  0
    2.6188    3.3443    4.5214 H   0  0  0  0  0  0  0  0  0  0  0  0
    3.5300    2.1767    5.5244 H   0  0  0  0  0  0  0  0  0  0  0  0
  1  2  1  0
  1 25  1  0
  1 26  1  0
  1 27  1  0
  2  3  2  0
  2 23  1  0
  3  4  1  0
  4  5  1  0
  4 22  2  0
  5  6  2  0
  5  7  2  0
  5  8  1  1
  8  9  1  0
  8 28  1  0
  9 10  1  0
  9 29  1  0
  9 30  1  0
 10 11  2  0
 10 12  1  0
 12 13  1  0
 12 21  1  0
 13 14  1  0
 13 31  1  0
 13 32  1  0
 14 15  1  0
 14 33  1  0
 14 34  1  0
 15 16  1  0
 15 35  1  0
 15 36  1  0
 16 17  1  0
 16 21  1  0
 16 37  1  6
 17 18  1  0
 17 38  1  0
 17 39  1  0
 18 19  1  0
 19 20  1  0
 19 40  1  0
 19 41  1  0
 20 21  1  0
 20 42  1  0
 20 43  1  0
 21 44  1  1
 22 23  1  0
 22 45  1  0
 23 24  1  0
 24 46  1  0
 24 47  1  0
 24 48  1  0
M  END

