
     RDKit          3D

 40 42  0  0  0  0  0  0  0  0999 V2000
    3.0868   -2.2149   -1.5227 O   0  0  0  0  0  0  0  0  0  0  0  0
    3.5273   -1.4197   -0.7104 C   0  0  0  0  0  0  0  0  0  0  0  0
    3.7729   -1.8648    0.7245 C   0  0  0  0  0  0  0  0  0  0  0  0
    3.4442   -3.2488    0.8730 N   0  0  0  0  0  0  0  0  0  0  0  0
    3.3991   -3.8767    2.0890 C   0  0  0  0  0  0  0  0  0  0  0  0
    3.0089   -5.2371    2.1896 C   0  0  0  0  0  0  0  0  0  0  0  0
    2.9872   -5.8241    3.4451 C   0  0  0  0  0  0  0  0  0  0  0  0
    3.3476   -5.0675    4.5718 C   0  0  0  0  0  0  0  0  0  0  0  0
    3.7140   -3.7399    4.3635 C   0  0  0  0  0  0  0  0  0  0  0  0
    3.7427   -3.1511    3.1633 N   0  0  0  0  0  0  0  0  0  0  0  0
    3.8705   -0.0027   -1.0748 C   0  0  0  0  0  0  0  0  0  0  0  0
    3.8029    0.9999   -0.0888 C   0  0  0  0  0  0  0  0  0  0  0  0
    4.1075    2.3179   -0.4203 C   0  0  0  0  0  0  0  0  0  0  0  0
    4.4947    2.6844   -1.6439 N   0  0  0  0  0  0  0  0  0  0  0  0
    4.5770    1.7379   -2.5752 C   0  0  0  0  0  0  0  0  0  0  0  0
    4.2725    0.3761   -2.3772 C   0  0  0  0  0  0  0  0  0  0  0  0
    4.4269   -0.5648   -3.5643 C   0  0  0  0  0  0  0  0  0  0  0  0
    3.3014   -0.4471   -4.5794 C   0  0  0  0  0  0  0  0  0  0  0  0
    2.0949   -1.1523   -4.4517 C   0  0  0  0  0  0  0  0  0  0  0  0
    1.0693   -1.0331   -5.3934 C   0  0  0  0  0  0  0  0  0  0  0  0
    1.2444   -0.1884   -6.4938 C   0  0  0  0  0  0  0  0  0  0  0  0
   -0.3029    0.0064   -7.9377 I   0  0  0  0  0  0  0  0  0  0  0  0
    2.4292    0.5315   -6.6586 C   0  0  0  0  0  0  0  0  0  0  0  0
    3.4265    0.3861   -5.6968 C   0  0  0  0  0  0  0  0  0  0  0  0
    4.5672    1.0861   -5.8641 F   0  0  0  0  0  0  0  0  0  0  0  0
    3.1865   -1.2358    1.4206 H   0  0  0  0  0  0  0  0  0  0  0  0
    4.8284   -1.6474    0.9842 H   0  0  0  0  0  0  0  0  0  0  0  0
    3.1135   -3.7192    0.0380 H   0  0  0  0  0  0  0  0  0  0  0  0
    2.7351   -5.8001    1.2939 H   0  0  0  0  0  0  0  0  0  0  0  0
    2.6902   -6.8711    3.5515 H   0  0  0  0  0  0  0  0  0  0  0  0
    3.3433   -5.4965    5.5753 H   0  0  0  0  0  0  0  0  0  0  0  0
    4.0026   -3.1089    5.2132 H   0  0  0  0  0  0  0  0  0  0  0  0
    3.4940    0.7658    0.9306 H   0  0  0  0  0  0  0  0  0  0  0  0
    4.0387    3.1078    0.3362 H   0  0  0  0  0  0  0  0  0  0  0  0
    4.9078    2.0616   -3.5688 H   0  0  0  0  0  0  0  0  0  0  0  0
    4.4893   -1.6039   -3.2252 H   0  0  0  0  0  0  0  0  0  0  0  0
    5.3728   -0.3162   -4.0672 H   0  0  0  0  0  0  0  0  0  0  0  0
    1.9688   -1.8091   -3.5890 H   0  0  0  0  0  0  0  0  0  0  0  0
    0.1443   -1.5974   -5.2670 H   0  0  0  0  0  0  0  0  0  0  0  0
    2.6000    1.1970   -7.5053 H   0  0  0  0  0  0  0  0  0  0  0  0
  1  2  2  0
  2  3  1  0
  2 11  1  0
  3  4  1  0
  3 26  1  0
  3 27  1  0
  4  5  1  0
  4 28  1  0
  5  6  2  0
  5 10  1  0
  6  7  1  0
  6 29  1  0
  7  8  2  0
  7 30  1  0
  8  9  1  0
  8 31  1  0
  9 10  2  0
  9 32  1  0
 11 12  2  0
 11 16  1  0
 12 13  1  0
 12 33  1  0
 13 14  2  0
 13 34  1  0
 14 15  1  0
 15 16  2  0
 15 35  1  0
 16 17  1  0
 17 18  1  0
 17 36  1  0
 17 37  1  0
 18 19  2  0
 18 24  1  0
 19 20  1  0
 19 38  1  0
 20 21  2  0
 20 39  1  0
 21 22  1  0
 21 23  1  0
 23 24  2  0
 23 40  1  0
 24 25  1  0
M  END

