
     RDKit          3D

 38 39  0  0  0  0  0  0  0  0999 V2000
    3.1490    1.0046   -0.8975 C   0  0  0  0  0  0  0  0  0  0  0  0
    2.4871   -0.0348    0.0062 C   0  0  1  0  0  0  0  0  0  0  0  0
    1.4103    0.2158    0.0909 H   0  0  0  0  0  0  0  0  0  0  0  0
    2.6295   -1.3506   -0.5251 O   0  0  0  0  0  0  0  0  0  0  0  0
    3.0474   -0.0789    1.4327 C   0  0  0  0  0  0  0  0  0  0  0  0
    4.5365   -0.4621    1.4902 C   0  0  0  0  0  0  0  0  0  0  0  0
    5.0259   -1.0250    2.8453 C   0  0  1  0  0  0  0  0  0  0  0  0
    4.5934   -0.0890    4.0148 C   0  0  0  0  0  0  0  0  0  0  0  0
    4.9313    1.3202    3.8031 C   0  0  0  0  0  0  0  0  0  0  0  0
    5.1747    2.4377    3.6178 N   0  0  0  0  0  0  0  0  0  0  0  0
    4.5324   -2.4608    3.1407 C   0  0  0  0  0  0  0  0  0  0  0  0
    3.7442   -3.1930    2.2376 C   0  0  0  0  0  0  0  0  0  0  0  0
    3.3292   -4.4953    2.5342 C   0  0  0  0  0  0  0  0  0  0  0  0
    3.7039   -5.0844    3.7416 C   0  0  0  0  0  0  0  0  0  0  0  0
    3.1848   -6.7101    4.1163 Cl  0  0  0  0  0  0  0  0  0  0  0  0
    4.4980   -4.3815    4.6521 C   0  0  0  0  0  0  0  0  0  0  0  0
    4.9045   -3.0831    4.3466 C   0  0  0  0  0  0  0  0  0  0  0  0
    6.5135   -1.0403    2.8166 N   0  0  0  0  0  0  0  0  0  0  0  0
    7.3597   -1.2297    1.7711 C   0  0  0  0  0  0  0  0  0  0  0  0
    8.6083   -1.2831    2.1933 N   0  0  0  0  0  0  0  0  0  0  0  0
    8.4795   -1.1280    3.5352 C   0  0  0  0  0  0  0  0  0  0  0  0
    7.2337   -0.9849    3.9583 N   0  0  0  0  0  0  0  0  0  0  0  0
    2.6783    1.0065   -1.8952 H   0  0  0  0  0  0  0  0  0  0  0  0
    4.2213    0.7958   -1.0338 H   0  0  0  0  0  0  0  0  0  0  0  0
    3.0422    2.0187   -0.4808 H   0  0  0  0  0  0  0  0  0  0  0  0
    2.2982   -1.3593   -1.4323 H   0  0  0  0  0  0  0  0  0  0  0  0
    2.4381   -0.8013    1.9975 H   0  0  0  0  0  0  0  0  0  0  0  0
    2.8873    0.9054    1.9003 H   0  0  0  0  0  0  0  0  0  0  0  0
    5.1463    0.4257    1.2667 H   0  0  0  0  0  0  0  0  0  0  0  0
    4.7427   -1.1980    0.7010 H   0  0  0  0  0  0  0  0  0  0  0  0
    5.0714   -0.4175    4.9463 H   0  0  0  0  0  0  0  0  0  0  0  0
    3.5052   -0.1744    4.1497 H   0  0  0  0  0  0  0  0  0  0  0  0
    3.4281   -2.7692    1.2840 H   0  0  0  0  0  0  0  0  0  0  0  0
    2.7146   -5.0517    1.8246 H   0  0  0  0  0  0  0  0  0  0  0  0
    4.7996   -4.8523    5.5892 H   0  0  0  0  0  0  0  0  0  0  0  0
    5.5536   -2.5603    5.0512 H   0  0  0  0  0  0  0  0  0  0  0  0
    7.0295   -1.3199    0.7386 H   0  0  0  0  0  0  0  0  0  0  0  0
    9.3236   -1.1131    4.2249 H   0  0  0  0  0  0  0  0  0  0  0  0
  1  2  1  0
  1 23  1  0
  1 24  1  0
  1 25  1  0
  2  3  1  1
  2  4  1  0
  2  5  1  0
  4 26  1  0
  5  6  1  0
  5 27  1  0
  5 28  1  0
  7  6  1  6
  6 29  1  0
  6 30  1  0
  7  8  1  0
  7 11  1  0
  7 18  1  0
  8  9  1  0
  8 31  1  0
  8 32  1  0
  9 10  3  0
 11 12  2  0
 11 17  1  0
 12 13  1  0
 12 33  1  0
 13 14  2  0
 13 34  1  0
 14 15  1  0
 14 16  1  0
 16 17  2  0
 16 35  1  0
 17 36  1  0
 18 19  1  0
 18 22  1  0
 19 20  2  0
 19 37  1  0
 20 21  1  0
 21 22  2  0
 21 38  1  0
M  END

