
     RDKit          3D

 60 61  0  0  0  0  0  0  0  0999 V2000
    5.4963   -1.7852   -6.6800 C   0  0  0  0  0  0  0  0  0  0  0  0
    6.6775   -1.7093   -5.7300 C   0  0  0  0  0  0  0  0  0  0  0  0
    6.7579   -0.4080   -5.1968 O   0  0  0  0  0  0  0  0  0  0  0  0
    7.8264   -0.2118   -4.2964 C   0  0  0  0  0  0  0  0  0  0  0  0
    7.7702    1.2086   -3.7564 C   0  0  0  0  0  0  0  0  0  0  0  0
    6.4973    1.4820   -2.9477 C   0  0  0  0  0  0  0  0  0  0  0  0
    6.3829    2.8703   -2.4989 N   0  0  0  0  0  0  0  0  0  0  0  0
    5.5490    3.7542   -3.2773 C   0  0  0  0  0  0  0  0  0  0  0  0
    4.0610    3.7231   -2.8479 C   0  0  0  0  0  0  0  0  0  0  0  0
    3.7738    3.0875   -1.8488 O   0  0  0  0  0  0  0  0  0  0  0  0
    3.0488    4.4434   -3.6522 C   0  0  0  0  0  0  0  0  0  0  0  0
    1.6301    4.3433   -3.4534 C   0  0  0  0  0  0  0  0  0  0  0  0
    0.9193    3.4872   -2.4448 C   0  0  0  0  0  0  0  0  0  0  0  0
    1.0356    5.1743   -4.4042 C   0  0  0  0  0  0  0  0  0  0  0  0
   -0.3858    5.4176   -4.6795 C   0  0  0  0  0  0  0  0  0  0  0  0
   -0.8376    6.0200   -5.6367 O   0  0  0  0  0  0  0  0  0  0  0  0
   -1.1858    4.8871   -3.7322 O   0  0  0  0  0  0  0  0  0  0  0  0
   -2.5885    5.0515   -3.9300 C   0  0  0  0  0  0  0  0  0  0  0  0
    2.0477    5.7790   -5.1622 N   0  0  0  0  0  0  0  0  0  0  0  0
    1.8360    6.7525   -6.2438 C   0  0  0  0  0  0  0  0  0  0  0  0
    1.7238    6.1078   -7.6228 C   0  0  0  0  0  0  0  0  0  0  0  0
    3.2598    5.3405   -4.7265 C   0  0  0  0  0  0  0  0  0  0  0  0
    4.5406    5.8097   -5.3523 C   0  0  0  0  0  0  0  0  0  0  0  0
    6.9649    3.1960   -1.2963 C   0  0  0  0  0  0  0  0  0  0  0  0
    7.6811    2.3934   -0.7076 O   0  0  0  0  0  0  0  0  0  0  0  0
    6.7274    4.5663   -0.7233 C   0  0  1  0  0  0  0  0  0  0  0  0
    6.8789    4.7002    0.7780 C   0  0  0  0  0  0  0  0  0  0  0  0
    7.9313    5.2701   -0.1138 C   0  0  0  0  0  0  0  0  0  0  0  0
    5.4130   -2.7931   -7.1158 H   0  0  0  0  0  0  0  0  0  0  0  0
    5.6125   -1.0593   -7.4999 H   0  0  0  0  0  0  0  0  0  0  0  0
    4.5581   -1.5561   -6.1509 H   0  0  0  0  0  0  0  0  0  0  0  0
    7.6189   -1.9650   -6.2624 H   0  0  0  0  0  0  0  0  0  0  0  0
    6.5665   -2.4542   -4.9134 H   0  0  0  0  0  0  0  0  0  0  0  0
    8.7973   -0.3904   -4.8047 H   0  0  0  0  0  0  0  0  0  0  0  0
    7.7652   -0.9424   -3.4613 H   0  0  0  0  0  0  0  0  0  0  0  0
    7.8369    1.9114   -4.6055 H   0  0  0  0  0  0  0  0  0  0  0  0
    8.6452    1.3840   -3.1111 H   0  0  0  0  0  0  0  0  0  0  0  0
    6.4841    0.8347   -2.0591 H   0  0  0  0  0  0  0  0  0  0  0  0
    5.6130    1.2376   -3.5533 H   0  0  0  0  0  0  0  0  0  0  0  0
    5.6259    3.4662   -4.3373 H   0  0  0  0  0  0  0  0  0  0  0  0
    5.9232    4.7865   -3.2259 H   0  0  0  0  0  0  0  0  0  0  0  0
    1.6120    2.7784   -1.9834 H   0  0  0  0  0  0  0  0  0  0  0  0
    0.0753    2.9561   -2.9051 H   0  0  0  0  0  0  0  0  0  0  0  0
    0.4910    4.1107   -1.6424 H   0  0  0  0  0  0  0  0  0  0  0  0
   -3.0744    4.5497   -3.0840 H   0  0  0  0  0  0  0  0  0  0  0  0
   -2.9095    4.5972   -4.8796 H   0  0  0  0  0  0  0  0  0  0  0  0
   -2.8603    6.1178   -3.9480 H   0  0  0  0  0  0  0  0  0  0  0  0
    2.6631    7.4748   -6.2118 H   0  0  0  0  0  0  0  0  0  0  0  0
    0.9150    7.2980   -6.0187 H   0  0  0  0  0  0  0  0  0  0  0  0
    2.6265    5.5316   -7.8812 H   0  0  0  0  0  0  0  0  0  0  0  0
    1.5841    6.8876   -8.3881 H   0  0  0  0  0  0  0  0  0  0  0  0
    0.8525    5.4388   -7.6590 H   0  0  0  0  0  0  0  0  0  0  0  0
    4.3683    6.5487   -6.1426 H   0  0  0  0  0  0  0  0  0  0  0  0
    5.0939    4.9755   -5.8099 H   0  0  0  0  0  0  0  0  0  0  0  0
    5.2084    6.2745   -4.6113 H   0  0  0  0  0  0  0  0  0  0  0  0
    5.9699    5.2000   -1.1841 H   0  0  0  0  0  0  0  0  0  0  0  0
    7.1200    3.7766    1.3092 H   0  0  0  0  0  0  0  0  0  0  0  0
    6.1912    5.3797    1.2885 H   0  0  0  0  0  0  0  0  0  0  0  0
    8.8810    4.7323   -0.1746 H   0  0  0  0  0  0  0  0  0  0  0  0
    7.9973    6.3550   -0.2365 H   0  0  0  0  0  0  0  0  0  0  0  0
  1  2  1  0
  1 29  1  0
  1 30  1  0
  1 31  1  0
  2  3  1  0
  2 32  1  0
  2 33  1  0
  3  4  1  0
  4  5  1  0
  4 34  1  0
  4 35  1  0
  5  6  1  0
  5 36  1  0
  5 37  1  0
  6  7  1  0
  6 38  1  0
  6 39  1  0
  7  8  1  0
  7 24  1  0
  8  9  1  0
  8 40  1  0
  8 41  1  0
  9 10  2  0
  9 11  1  0
 11 12  1  0
 11 22  2  0
 12 13  1  0
 12 14  2  0
 13 42  1  0
 13 43  1  0
 13 44  1  0
 14 15  1  0
 14 19  1  0
 15 16  2  0
 15 17  1  0
 17 18  1  0
 18 45  1  0
 18 46  1  0
 18 47  1  0
 19 20  1  0
 19 22  1  0
 20 21  1  0
 20 48  1  0
 20 49  1  0
 21 50  1  0
 21 51  1  0
 21 52  1  0
 22 23  1  0
 23 53  1  0
 23 54  1  0
 23 55  1  0
 24 25  2  0
 24 26  1  0
 26 27  1  0
 26 28  1  0
 26 56  1  6
 27 28  1  0
 27 57  1  0
 27 58  1  0
 28 59  1  0
 28 60  1  0
M  END

