
     RDKit          3D

 67 70  0  0  0  0  0  0  0  0999 V2000
    7.0445    3.5227   -5.3597 C   0  0  0  0  0  0  0  0  0  0  0  0
    7.8111    2.8587   -4.2320 C   0  0  0  0  0  0  0  0  0  0  0  0
    7.0184    2.9332   -3.0571 O   0  0  0  0  0  0  0  0  0  0  0  0
    7.4823    2.4098   -1.8951 C   0  0  0  0  0  0  0  0  0  0  0  0
    8.7243    1.7709   -1.7459 C   0  0  0  0  0  0  0  0  0  0  0  0
    9.1028    1.2659   -0.4976 C   0  0  0  0  0  0  0  0  0  0  0  0
    8.2695    1.3770    0.6225 C   0  0  0  0  0  0  0  0  0  0  0  0
    8.7102    0.8478    1.9808 C   0  0  0  0  0  0  0  0  0  0  0  0
    9.2880   -0.5380    1.9569 C   0  0  0  0  0  0  0  0  0  0  0  0
   10.5752   -0.7870    2.0225 N   0  0  0  0  0  0  0  0  0  0  0  0
   10.6915   -2.1620    1.9558 C   0  0  0  0  0  0  0  0  0  0  0  0
   11.8336   -2.9732    1.9956 C   0  0  0  0  0  0  0  0  0  0  0  0
   11.6742   -4.3612    1.9147 C   0  0  0  0  0  0  0  0  0  0  0  0
   12.8445   -5.3077    1.8251 C   0  0  0  0  0  0  0  0  0  0  0  0
   12.8280   -6.2134    1.0014 O   0  0  0  0  0  0  0  0  0  0  0  0
   13.9302   -5.1002    2.6539 N   0  0  0  0  0  0  0  0  0  0  0  0
   15.1221   -5.9235    2.4521 C   0  0  0  0  0  0  0  0  0  0  0  0
   16.3912   -5.0779    2.5981 C   0  0  0  0  0  0  0  0  0  0  0  0
   16.4177   -4.3324    3.9384 C   0  0  0  0  0  0  0  0  0  0  0  0
   15.1245   -3.5331    4.1440 C   0  0  0  0  0  0  0  0  0  0  0  0
   13.8937   -4.4246    3.9501 C   0  0  0  0  0  0  0  0  0  0  0  0
   10.3812   -4.9240    1.7747 C   0  0  0  0  0  0  0  0  0  0  0  0
    9.2330   -4.1378    1.7499 C   0  0  0  0  0  0  0  0  0  0  0  0
    9.4069   -2.7502    1.8405 C   0  0  0  0  0  0  0  0  0  0  0  0
    8.5181   -1.6891    1.8453 N   0  0  0  0  0  0  0  0  0  0  0  0
    7.0733   -1.7991    1.6949 C   0  0  0  0  0  0  0  0  0  0  0  0
    6.6245   -2.0198    0.2438 C   0  0  0  0  0  0  0  0  0  0  0  0
    5.1184   -2.2961    0.0779 C   0  0  1  0  0  0  0  0  0  0  0  0
    4.2430   -1.1243    0.5453 C   0  0  0  0  0  0  0  0  0  0  0  0
    4.8043   -2.6615   -1.3787 C   0  0  0  0  0  0  0  0  0  0  0  0
    7.0318    2.0202    0.4577 C   0  0  0  0  0  0  0  0  0  0  0  0
    6.6388    2.5305   -0.7772 C   0  0  0  0  0  0  0  0  0  0  0  0
    7.6298    3.4863   -6.2914 H   0  0  0  0  0  0  0  0  0  0  0  0
    6.8356    4.5765   -5.1197 H   0  0  0  0  0  0  0  0  0  0  0  0
    6.0843    3.0123   -5.5307 H   0  0  0  0  0  0  0  0  0  0  0  0
    8.7812    3.3648   -4.0667 H   0  0  0  0  0  0  0  0  0  0  0  0
    8.0287    1.8013   -4.4754 H   0  0  0  0  0  0  0  0  0  0  0  0
    9.4047    1.6615   -2.5904 H   0  0  0  0  0  0  0  0  0  0  0  0
   10.0738    0.7739   -0.3940 H   0  0  0  0  0  0  0  0  0  0  0  0
    7.8649    0.9014    2.6860 H   0  0  0  0  0  0  0  0  0  0  0  0
    9.5061    1.4882    2.3919 H   0  0  0  0  0  0  0  0  0  0  0  0
   12.8202   -2.5117    2.0636 H   0  0  0  0  0  0  0  0  0  0  0  0
   15.0452   -6.3866    1.4612 H   0  0  0  0  0  0  0  0  0  0  0  0
   15.1334   -6.7472    3.1950 H   0  0  0  0  0  0  0  0  0  0  0  0
   16.4304   -4.3508    1.7678 H   0  0  0  0  0  0  0  0  0  0  0  0
   17.2763   -5.7281    2.4968 H   0  0  0  0  0  0  0  0  0  0  0  0
   17.2970   -3.6700    3.9986 H   0  0  0  0  0  0  0  0  0  0  0  0
   16.5226   -5.0657    4.7597 H   0  0  0  0  0  0  0  0  0  0  0  0
   15.0821   -2.6988    3.4216 H   0  0  0  0  0  0  0  0  0  0  0  0
   15.0970   -3.0868    5.1521 H   0  0  0  0  0  0  0  0  0  0  0  0
   12.9663   -3.8501    4.0465 H   0  0  0  0  0  0  0  0  0  0  0  0
   13.8788   -5.1943    4.7499 H   0  0  0  0  0  0  0  0  0  0  0  0
   10.3038   -6.0078    1.6707 H   0  0  0  0  0  0  0  0  0  0  0  0
    8.2462   -4.5945    1.6496 H   0  0  0  0  0  0  0  0  0  0  0  0
    6.6215   -0.8880    2.1096 H   0  0  0  0  0  0  0  0  0  0  0  0
    6.7314   -2.6355    2.3286 H   0  0  0  0  0  0  0  0  0  0  0  0
    7.1911   -2.8720   -0.1677 H   0  0  0  0  0  0  0  0  0  0  0  0
    6.9094   -1.1387   -0.3566 H   0  0  0  0  0  0  0  0  0  0  0  0
    4.8690   -3.1750    0.7041 H   0  0  0  0  0  0  0  0  0  0  0  0
    4.4837   -0.2056   -0.0162 H   0  0  0  0  0  0  0  0  0  0  0  0
    4.3708   -0.9048    1.6174 H   0  0  0  0  0  0  0  0  0  0  0  0
    3.1751   -1.3441    0.3858 H   0  0  0  0  0  0  0  0  0  0  0  0
    5.0342   -1.8194   -2.0536 H   0  0  0  0  0  0  0  0  0  0  0  0
    3.7386   -2.9103   -1.5074 H   0  0  0  0  0  0  0  0  0  0  0  0
    5.3955   -3.5286   -1.7148 H   0  0  0  0  0  0  0  0  0  0  0  0
    6.3596    2.1282    1.3144 H   0  0  0  0  0  0  0  0  0  0  0  0
    5.6772    3.0320   -0.9047 H   0  0  0  0  0  0  0  0  0  0  0  0
  1  2  1  0
  1 33  1  0
  1 34  1  0
  1 35  1  0
  2  3  1  0
  2 36  1  0
  2 37  1  0
  3  4  1  0
  4  5  2  0
  4 32  1  0
  5  6  1  0
  5 38  1  0
  6  7  2  0
  6 39  1  0
  7  8  1  0
  7 31  1  0
  8  9  1  0
  8 40  1  0
  8 41  1  0
  9 10  2  0
  9 25  1  0
 10 11  1  0
 11 12  2  0
 11 24  1  0
 12 13  1  0
 12 42  1  0
 13 14  1  0
 13 22  2  0
 14 15  2  0
 14 16  1  0
 16 17  1  0
 16 21  1  0
 17 18  1  0
 17 43  1  0
 17 44  1  0
 18 19  1  0
 18 45  1  0
 18 46  1  0
 19 20  1  0
 19 47  1  0
 19 48  1  0
 20 21  1  0
 20 49  1  0
 20 50  1  0
 21 51  1  0
 21 52  1  0
 22 23  1  0
 22 53  1  0
 23 24  2  0
 23 54  1  0
 24 25  1  0
 25 26  1  0
 26 27  1  0
 26 55  1  0
 26 56  1  0
 27 28  1  0
 27 57  1  0
 27 58  1  0
 28 29  1  0
 28 30  1  0
 28 59  1  1
 29 60  1  0
 29 61  1  0
 29 62  1  0
 30 63  1  0
 30 64  1  0
 30 65  1  0
 31 32  2  0
 31 66  1  0
 32 67  1  0
M  END

