
     RDKit          3D

 58 62  0  0  0  0  0  0  0  0999 V2000
    2.7446    0.1145    1.6600 C   0  0  0  0  0  0  0  0  0  0  0  0
    1.9605    1.2888    1.6028 O   0  0  0  0  0  0  0  0  0  0  0  0
    2.3156    2.2839    0.7614 C   0  0  0  0  0  0  0  0  0  0  0  0
    1.4670    3.4159    0.7835 C   0  0  0  0  0  0  0  0  0  0  0  0
    1.7346    4.5012   -0.0416 C   0  0  0  0  0  0  0  0  0  0  0  0
    0.9841    5.6234   -0.0906 O   0  0  0  0  0  0  0  0  0  0  0  0
   -0.1593    5.7339    0.7319 C   0  0  0  0  0  0  0  0  0  0  0  0
    2.8652    4.4830   -0.9120 C   0  0  0  0  0  0  0  0  0  0  0  0
    3.2175    5.5528   -1.7923 C   0  0  0  0  0  0  0  0  0  0  0  0
    4.3126    5.4992   -2.6160 C   0  0  0  0  0  0  0  0  0  0  0  0
    4.6888    6.6337   -3.4929 C   0  0  0  0  0  0  0  0  0  0  0  0
    4.3980    7.9577   -3.1073 C   0  0  0  0  0  0  0  0  0  0  0  0
    4.6914    9.0439   -3.9269 C   0  0  0  0  0  0  0  0  0  0  0  0
    5.3125    8.8591   -5.1785 C   0  0  0  0  0  0  0  0  0  0  0  0
    5.6876    9.9936   -6.0557 C   0  0  0  0  0  0  0  0  0  0  0  0
    6.7822    9.9404   -6.8802 C   0  0  0  0  0  0  0  0  0  0  0  0
    7.1335   11.0105   -7.7605 C   0  0  0  0  0  0  0  0  0  0  0  0
    8.2635   10.9928   -8.6318 C   0  0  0  0  0  0  0  0  0  0  0  0
    9.0142    9.8708   -8.5838 O   0  0  0  0  0  0  0  0  0  0  0  0
   10.1568    9.7606   -9.4075 C   0  0  0  0  0  0  0  0  0  0  0  0
    8.5306   12.0786   -9.4563 C   0  0  0  0  0  0  0  0  0  0  0  0
    7.6817   13.2104   -9.4335 C   0  0  0  0  0  0  0  0  0  0  0  0
    8.0357   14.2056  -10.2752 O   0  0  0  0  0  0  0  0  0  0  0  0
    7.2531   15.3810  -10.3295 C   0  0  0  0  0  0  0  0  0  0  0  0
    6.5693   13.2602   -8.5893 C   0  0  0  0  0  0  0  0  0  0  0  0
    6.3192   12.1547   -7.7669 C   0  0  0  0  0  0  0  0  0  0  0  0
    5.2443   12.2176   -6.9493 O   0  0  0  0  0  0  0  0  0  0  0  0
    4.8585   11.2139   -6.0595 C   0  0  0  0  0  0  0  0  0  0  0  0
    3.8885   11.4413   -5.3839 O   0  0  0  0  0  0  0  0  0  0  0  0
    5.6037    7.5351   -5.5638 C   0  0  0  0  0  0  0  0  0  0  0  0
    5.3103    6.4489   -4.7442 C   0  0  0  0  0  0  0  0  0  0  0  0
    5.1407    4.2782   -2.6121 C   0  0  0  0  0  0  0  0  0  0  0  0
    6.1103    4.0499   -3.2881 O   0  0  0  0  0  0  0  0  0  0  0  0
    4.7549    3.2754   -1.7213 O   0  0  0  0  0  0  0  0  0  0  0  0
    3.6794    3.3388   -0.9045 C   0  0  0  0  0  0  0  0  0  0  0  0
    3.4287    2.2337   -0.0817 C   0  0  0  0  0  0  0  0  0  0  0  0
    2.2709   -0.5396    2.4037 H   0  0  0  0  0  0  0  0  0  0  0  0
    3.7798    0.3313    1.9770 H   0  0  0  0  0  0  0  0  0  0  0  0
    2.7702   -0.4061    0.6867 H   0  0  0  0  0  0  0  0  0  0  0  0
    0.6167    3.3924    1.4620 H   0  0  0  0  0  0  0  0  0  0  0  0
   -0.6021    6.7154    0.5181 H   0  0  0  0  0  0  0  0  0  0  0  0
    0.1044    5.6815    1.8027 H   0  0  0  0  0  0  0  0  0  0  0  0
   -0.8993    4.9464    0.5058 H   0  0  0  0  0  0  0  0  0  0  0  0
    2.5691    6.4297   -1.8038 H   0  0  0  0  0  0  0  0  0  0  0  0
    3.9512    8.1498   -2.1291 H   0  0  0  0  0  0  0  0  0  0  0  0
    4.4458   10.0499   -3.5913 H   0  0  0  0  0  0  0  0  0  0  0  0
    7.4309    9.0637   -6.8694 H   0  0  0  0  0  0  0  0  0  0  0  0
   10.5997    8.7789   -9.1950 H   0  0  0  0  0  0  0  0  0  0  0  0
   10.8971   10.5479   -9.1815 H   0  0  0  0  0  0  0  0  0  0  0  0
    9.8920    9.8139  -10.4780 H   0  0  0  0  0  0  0  0  0  0  0  0
    9.3805   12.1026  -10.1353 H   0  0  0  0  0  0  0  0  0  0  0  0
    7.7268   16.0355  -11.0729 H   0  0  0  0  0  0  0  0  0  0  0  0
    7.2294   15.8999   -9.3552 H   0  0  0  0  0  0  0  0  0  0  0  0
    6.2173   15.1664  -10.6458 H   0  0  0  0  0  0  0  0  0  0  0  0
    5.8931   14.1106   -8.5378 H   0  0  0  0  0  0  0  0  0  0  0  0
    6.0510    7.3429   -6.5418 H   0  0  0  0  0  0  0  0  0  0  0  0
    5.5564    5.4428   -5.0795 H   0  0  0  0  0  0  0  0  0  0  0  0
    4.1048    1.3831   -0.1325 H   0  0  0  0  0  0  0  0  0  0  0  0
  1  2  1  0
  1 37  1  0
  1 38  1  0
  1 39  1  0
  2  3  1  0
  3  4  2  0
  3 36  1  0
  4  5  1  0
  4 40  1  0
  5  6  1  0
  5  8  2  0
  6  7  1  0
  7 41  1  0
  7 42  1  0
  7 43  1  0
  8  9  1  0
  8 35  1  0
  9 10  2  0
  9 44  1  0
 10 11  1  0
 10 32  1  0
 11 12  2  0
 11 31  1  0
 12 13  1  0
 12 45  1  0
 13 14  2  0
 13 46  1  0
 14 15  1  0
 14 30  1  0
 15 16  2  0
 15 28  1  0
 16 17  1  0
 16 47  1  0
 17 18  2  0
 17 26  1  0
 18 19  1  0
 18 21  1  0
 19 20  1  0
 20 48  1  0
 20 49  1  0
 20 50  1  0
 21 22  2  0
 21 51  1  0
 22 23  1  0
 22 25  1  0
 23 24  1  0
 24 52  1  0
 24 53  1  0
 24 54  1  0
 25 26  2  0
 25 55  1  0
 26 27  1  0
 27 28  1  0
 28 29  2  0
 30 31  2  0
 30 56  1  0
 31 57  1  0
 32 33  2  0
 32 34  1  0
 34 35  1  0
 35 36  2  0
 36 58  1  0
M  END

