
     RDKit          3D

 56 59  0  0  0  0  0  0  0  0999 V2000
    1.1155    0.5395    0.3811 O   0  0  0  0  0  0  0  0  0  0  0  0
    2.1422    0.3083   -0.2544 C   0  0  0  0  0  0  0  0  0  0  0  0
    2.9804   -0.7414    0.0632 N   0  0  0  0  0  0  0  0  0  0  0  0
    2.7361   -1.5069    1.2733 C   0  0  0  0  0  0  0  0  0  0  0  0
    3.3020   -0.8701    2.5333 C   0  0  0  0  0  0  0  0  0  0  0  0
    2.4703   -0.0792    3.3418 C   0  0  0  0  0  0  0  0  0  0  0  0
    2.9366    0.5081    4.5198 C   0  0  0  0  0  0  0  0  0  0  0  0
    4.2661    0.3254    4.9093 C   0  0  0  0  0  0  0  0  0  0  0  0
    5.1224   -0.4306    4.1082 C   0  0  0  0  0  0  0  0  0  0  0  0
    4.6469   -1.0251    2.9304 C   0  0  0  0  0  0  0  0  0  0  0  0
    5.5641   -1.8022    2.1567 N   0  0  0  0  0  0  0  0  0  0  0  0
    6.4531   -2.7233    2.6328 C   0  0  0  0  0  0  0  0  0  0  0  0
    7.1927   -3.1714    1.5541 C   0  0  0  0  0  0  0  0  0  0  0  0
    6.6735   -2.4514    0.4529 C   0  0  0  0  0  0  0  0  0  0  0  0
    5.6974   -1.6285    0.8224 N   0  0  0  0  0  0  0  0  0  0  0  0
    2.5017    1.0695   -1.3512 N   0  0  0  0  0  0  0  0  0  0  0  0
    3.6697    0.8449   -2.1908 C   0  0  0  0  0  0  0  0  0  0  0  0
    4.8554    1.7660   -1.8757 C   0  0  0  0  0  0  0  0  0  0  0  0
    4.4989    3.2696   -1.7911 C   0  0  0  0  0  0  0  0  0  0  0  0
    3.6622    3.6842   -0.6741 N   0  0  0  0  0  0  0  0  0  0  0  0
    4.2024    3.4596    0.6647 C   0  0  1  0  0  0  0  0  0  0  0  0
    5.6679    3.9065    0.8278 C   0  0  0  0  0  0  0  0  0  0  0  0
    5.8874    3.9421    2.3501 C   0  0  0  0  0  0  0  0  0  0  0  0
    4.4982    4.2807    2.9598 C   0  0  0  0  0  0  0  0  0  0  0  0
    3.5093    4.2831    1.7721 C   0  0  0  0  0  0  0  0  0  0  0  0
    2.2201    3.5239   -0.8455 C   0  0  0  0  0  0  0  0  0  0  0  0
    1.7400    2.2773   -1.6259 C   0  0  0  0  0  0  0  0  0  0  0  0
    3.9624   -0.7194   -0.1982 H   0  0  0  0  0  0  0  0  0  0  0  0
    3.1634   -2.5109    1.1345 H   0  0  0  0  0  0  0  0  0  0  0  0
    1.6500   -1.6105    1.3873 H   0  0  0  0  0  0  0  0  0  0  0  0
    1.4386    0.0739    3.0182 H   0  0  0  0  0  0  0  0  0  0  0  0
    2.2614    1.1105    5.1324 H   0  0  0  0  0  0  0  0  0  0  0  0
    4.6447    0.7836    5.8261 H   0  0  0  0  0  0  0  0  0  0  0  0
    6.1726   -0.5497    4.3823 H   0  0  0  0  0  0  0  0  0  0  0  0
    6.4703   -2.9985    3.6846 H   0  0  0  0  0  0  0  0  0  0  0  0
    7.9841   -3.9169    1.5595 H   0  0  0  0  0  0  0  0  0  0  0  0
    6.9737   -2.5008   -0.5937 H   0  0  0  0  0  0  0  0  0  0  0  0
    3.3579    1.0049   -3.2398 H   0  0  0  0  0  0  0  0  0  0  0  0
    3.9677   -0.2119   -2.1292 H   0  0  0  0  0  0  0  0  0  0  0  0
    5.6220    1.6272   -2.6598 H   0  0  0  0  0  0  0  0  0  0  0  0
    5.3251    1.4499   -0.9290 H   0  0  0  0  0  0  0  0  0  0  0  0
    4.0001    3.5817   -2.7261 H   0  0  0  0  0  0  0  0  0  0  0  0
    5.4426    3.8385   -1.7651 H   0  0  0  0  0  0  0  0  0  0  0  0
    4.1467    2.3869    0.9648 H   0  0  0  0  0  0  0  0  0  0  0  0
    5.7663    4.9175    0.3945 H   0  0  0  0  0  0  0  0  0  0  0  0
    6.3930    3.2554    0.3164 H   0  0  0  0  0  0  0  0  0  0  0  0
    6.6677    4.6645    2.6359 H   0  0  0  0  0  0  0  0  0  0  0  0
    6.2275    2.9556    2.7044 H   0  0  0  0  0  0  0  0  0  0  0  0
    4.4970    5.2515    3.4794 H   0  0  0  0  0  0  0  0  0  0  0  0
    4.2107    3.5252    3.7074 H   0  0  0  0  0  0  0  0  0  0  0  0
    3.3597    5.3056    1.3856 H   0  0  0  0  0  0  0  0  0  0  0  0
    2.5227    3.8899    2.0570 H   0  0  0  0  0  0  0  0  0  0  0  0
    1.7890    4.4093   -1.3568 H   0  0  0  0  0  0  0  0  0  0  0  0
    1.7595    3.4903    0.1492 H   0  0  0  0  0  0  0  0  0  0  0  0
    1.8012    2.4604   -2.7107 H   0  0  0  0  0  0  0  0  0  0  0  0
    0.6839    2.0966   -1.3799 H   0  0  0  0  0  0  0  0  0  0  0  0
  1  2  2  0
  2  3  1  0
  2 16  1  0
  3  4  1  0
  3 28  1  0
  4  5  1  0
  4 29  1  0
  4 30  1  0
  5  6  2  0
  5 10  1  0
  6  7  1  0
  6 31  1  0
  7  8  2  0
  7 32  1  0
  8  9  1  0
  8 33  1  0
  9 10  2  0
  9 34  1  0
 10 11  1  0
 11 12  1  0
 11 15  1  0
 12 13  2  0
 12 35  1  0
 13 14  1  0
 13 36  1  0
 14 15  2  0
 14 37  1  0
 16 17  1  0
 16 27  1  0
 17 18  1  0
 17 38  1  0
 17 39  1  0
 18 19  1  0
 18 40  1  0
 18 41  1  0
 19 20  1  0
 19 42  1  0
 19 43  1  0
 20 21  1  0
 20 26  1  0
 21 22  1  0
 21 25  1  0
 21 44  1  1
 22 23  1  0
 22 45  1  0
 22 46  1  0
 23 24  1  0
 23 47  1  0
 23 48  1  0
 24 25  1  0
 24 49  1  0
 24 50  1  0
 25 51  1  0
 25 52  1  0
 26 27  1  0
 26 53  1  0
 26 54  1  0
 27 55  1  0
 27 56  1  0
M  END

