
     RDKit          3D

 42 43  0  0  0  0  0  0  0  0999 V2000
    1.1000    0.2660    0.3992 C   0  0  0  0  0  0  0  0  0  0  0  0
    2.5868    0.2512    0.0074 C   0  0  1  0  0  0  0  0  0  0  0  0
    3.1383   -1.1772   -0.1767 C   0  0  0  0  0  0  0  0  0  0  0  0
    2.7428   -1.7917   -1.5244 C   0  0  0  0  0  0  0  0  0  0  0  0
    3.1845   -0.9075   -2.6965 C   0  0  0  0  0  0  0  0  0  0  0  0
    2.6470    0.5517   -2.6165 C   0  0  2  0  0  0  0  0  0  0  0  0
    1.1513    0.5297   -2.9914 C   0  0  0  0  0  0  0  0  0  0  0  0
    0.2650    2.2965   -2.9208 Br  0  0  0  0  0  0  0  0  0  0  0  0
    3.3638    1.4033   -3.5757 N   0  0  0  0  0  0  0  0  0  0  0  0
    3.3715    1.2568   -4.9221 C   0  0  0  0  0  0  0  0  0  0  0  0
    2.8536    0.3326   -5.5378 O   0  0  0  0  0  0  0  0  0  0  0  0
    4.1177    2.3774   -5.6825 C   0  0  1  0  0  0  0  0  0  0  0  0
    5.3735    1.7867   -6.3260 C   0  0  0  0  0  0  0  0  0  0  0  0
    3.1619    3.0525   -6.7070 C   0  0  0  0  0  0  0  0  0  0  0  0
    3.4494    4.5485   -6.5276 C   0  0  0  0  0  0  0  0  0  0  0  0
    3.7814    4.6170   -5.0397 C   0  0  0  0  0  0  0  0  0  0  0  0
    4.5197    3.4249   -4.7773 O   0  0  0  0  0  0  0  0  0  0  0  0
    2.9540    1.1270   -1.2123 C   0  0  0  0  0  0  0  0  0  0  0  0
    0.9679   -0.1859    1.3957 H   0  0  0  0  0  0  0  0  0  0  0  0
    0.4608   -0.3015   -0.2939 H   0  0  0  0  0  0  0  0  0  0  0  0
    0.7054    1.2932    0.4400 H   0  0  0  0  0  0  0  0  0  0  0  0
    3.1249    0.7035    0.8592 H   0  0  0  0  0  0  0  0  0  0  0  0
    2.8050   -1.8196    0.6559 H   0  0  0  0  0  0  0  0  0  0  0  0
    4.2414   -1.1428   -0.1191 H   0  0  0  0  0  0  0  0  0  0  0  0
    1.6534   -1.9666   -1.5604 H   0  0  0  0  0  0  0  0  0  0  0  0
    3.2040   -2.7874   -1.6329 H   0  0  0  0  0  0  0  0  0  0  0  0
    2.9040   -1.3461   -3.6645 H   0  0  0  0  0  0  0  0  0  0  0  0
    4.2859   -0.8343   -2.6957 H   0  0  0  0  0  0  0  0  0  0  0  0
    0.5638   -0.1125   -2.3303 H   0  0  0  0  0  0  0  0  0  0  0  0
    1.0419    0.1988   -4.0293 H   0  0  0  0  0  0  0  0  0  0  0  0
    3.8072    2.2554   -3.2434 H   0  0  0  0  0  0  0  0  0  0  0  0
    5.1063    0.9116   -6.9353 H   0  0  0  0  0  0  0  0  0  0  0  0
    6.0859    1.4738   -5.5472 H   0  0  0  0  0  0  0  0  0  0  0  0
    5.8666    2.5378   -6.9622 H   0  0  0  0  0  0  0  0  0  0  0  0
    2.1144    2.8259   -6.4579 H   0  0  0  0  0  0  0  0  0  0  0  0
    3.3391    2.6896   -7.7289 H   0  0  0  0  0  0  0  0  0  0  0  0
    2.6010    5.1897   -6.8104 H   0  0  0  0  0  0  0  0  0  0  0  0
    4.3235    4.8571   -7.1239 H   0  0  0  0  0  0  0  0  0  0  0  0
    2.8564    4.6421   -4.4299 H   0  0  0  0  0  0  0  0  0  0  0  0
    4.4075    5.4766   -4.7552 H   0  0  0  0  0  0  0  0  0  0  0  0
    2.4908    2.1229   -1.1189 H   0  0  0  0  0  0  0  0  0  0  0  0
    4.0466    1.2834   -1.1854 H   0  0  0  0  0  0  0  0  0  0  0  0
  1  2  1  0
  1 19  1  0
  1 20  1  0
  1 21  1  0
  2  3  1  0
  2 18  1  0
  2 22  1  1
  3  4  1  0
  3 23  1  0
  3 24  1  0
  4  5  1  0
  4 25  1  0
  4 26  1  0
  5  6  1  0
  5 27  1  0
  5 28  1  0
  6  7  1  0
  6  9  1  6
  6 18  1  0
  7  8  1  0
  7 29  1  0
  7 30  1  0
  9 10  1  0
  9 31  1  0
 10 11  2  0
 12 10  1  1
 12 13  1  0
 12 14  1  0
 12 17  1  0
 13 32  1  0
 13 33  1  0
 13 34  1  0
 14 15  1  0
 14 35  1  0
 14 36  1  0
 15 16  1  0
 15 37  1  0
 15 38  1  0
 16 17  1  0
 16 39  1  0
 16 40  1  0
 18 41  1  0
 18 42  1  0
M  END

