
     RDKit          3D

 37 39  0  0  0  0  0  0  0  0999 V2000
    1.9966   -0.6723   -0.1615 C   0  0  0  0  0  0  0  0  0  0  0  0
    2.9886    0.3277   -0.7753 C   0  0  0  0  0  0  0  0  0  0  0  0
    3.3211    1.4954    0.1102 C   0  0  0  0  0  0  0  0  0  0  0  0
    2.9932    2.8111   -0.0750 C   0  0  0  0  0  0  0  0  0  0  0  0
    3.4560    3.6678    0.9812 C   0  0  0  0  0  0  0  0  0  0  0  0
    3.3537    5.0769    1.2083 C   0  0  0  0  0  0  0  0  0  0  0  0
    2.7013    5.8615    0.2994 N   0  0  0  0  0  0  0  0  0  0  0  0
    2.4495    7.2491    0.2515 C   0  0  0  0  0  0  0  0  0  0  0  0
    2.8642    8.1502    1.2446 C   0  0  0  0  0  0  0  0  0  0  0  0
    2.5728    9.5104    1.1221 C   0  0  0  0  0  0  0  0  0  0  0  0
    1.8694   10.0182    0.0246 C   0  0  0  0  0  0  0  0  0  0  0  0
    1.5636   11.4894   -0.1165 C   0  0  0  0  0  0  0  0  0  0  0  0
    1.4616    9.1017   -0.9573 C   0  0  0  0  0  0  0  0  0  0  0  0
    1.7321    7.7334   -0.8744 C   0  0  0  0  0  0  0  0  0  0  0  0
    1.2648    6.7978   -1.9647 C   0  0  0  0  0  0  0  0  0  0  0  0
    3.8963    5.6092    2.3061 N   0  0  0  0  0  0  0  0  0  0  0  0
    4.5203    4.8032    3.1599 C   0  0  0  0  0  0  0  0  0  0  0  0
    5.1996    5.5891    4.5682 Cl  0  0  0  0  0  0  0  0  0  0  0  0
    4.6889    3.4996    3.0781 N   0  0  0  0  0  0  0  0  0  0  0  0
    4.1482    2.9592    1.9820 C   0  0  0  0  0  0  0  0  0  0  0  0
    4.2206    1.2494    1.6069 S   0  0  0  0  0  0  0  0  0  0  0  0
    1.7934   -1.4968   -0.8629 H   0  0  0  0  0  0  0  0  0  0  0  0
    1.0399   -0.1837    0.0809 H   0  0  0  0  0  0  0  0  0  0  0  0
    2.3920   -1.1113    0.7681 H   0  0  0  0  0  0  0  0  0  0  0  0
    2.5785    0.7296   -1.7166 H   0  0  0  0  0  0  0  0  0  0  0  0
    3.9183   -0.2026   -1.0482 H   0  0  0  0  0  0  0  0  0  0  0  0
    2.4358    3.1424   -0.9541 H   0  0  0  0  0  0  0  0  0  0  0  0
    2.3340    5.3494   -0.4905 H   0  0  0  0  0  0  0  0  0  0  0  0
    3.4117    7.7754    2.1051 H   0  0  0  0  0  0  0  0  0  0  0  0
    2.9071   10.1900    1.9111 H   0  0  0  0  0  0  0  0  0  0  0  0
    1.8489   12.0481    0.7871 H   0  0  0  0  0  0  0  0  0  0  0  0
    0.4897   11.6644   -0.2957 H   0  0  0  0  0  0  0  0  0  0  0  0
    2.1072   11.9343   -0.9679 H   0  0  0  0  0  0  0  0  0  0  0  0
    0.9073    9.4669   -1.8279 H   0  0  0  0  0  0  0  0  0  0  0  0
    0.7322    7.3481   -2.7526 H   0  0  0  0  0  0  0  0  0  0  0  0
    0.5696    6.0272   -1.5838 H   0  0  0  0  0  0  0  0  0  0  0  0
    2.1061    6.2716   -2.4519 H   0  0  0  0  0  0  0  0  0  0  0  0
  1  2  1  0
  1 22  1  0
  1 23  1  0
  1 24  1  0
  2  3  1  0
  2 25  1  0
  2 26  1  0
  3  4  2  0
  3 21  1  0
  4  5  1  0
  4 27  1  0
  5  6  2  0
  5 20  1  0
  6  7  1  0
  6 16  1  0
  7  8  1  0
  7 28  1  0
  8  9  2  0
  8 14  1  0
  9 10  1  0
  9 29  1  0
 10 11  2  0
 10 30  1  0
 11 12  1  0
 11 13  1  0
 12 31  1  0
 12 32  1  0
 12 33  1  0
 13 14  2  0
 13 34  1  0
 14 15  1  0
 15 35  1  0
 15 36  1  0
 15 37  1  0
 16 17  2  0
 17 18  1  0
 17 19  1  0
 19 20  2  0
 20 21  1  0
M  END

