
     RDKit          3D

 38 40  0  0  0  0  0  0  0  0999 V2000
    4.3264    2.5257    0.3304 C   0  0  0  0  0  0  0  0  0  0  0  0
    3.8218    1.1145    0.1246 C   0  0  0  0  0  0  0  0  0  0  0  0
    2.4382    0.8940    0.0171 C   0  0  0  0  0  0  0  0  0  0  0  0
    1.9363   -0.3903   -0.1765 C   0  0  0  0  0  0  0  0  0  0  0  0
    2.8027   -1.4791   -0.2736 C   0  0  0  0  0  0  0  0  0  0  0  0
    4.1895   -1.2860   -0.1549 C   0  0  0  0  0  0  0  0  0  0  0  0
    5.0960   -2.3611   -0.2006 N   0  0  0  0  0  0  0  0  0  0  0  0
    4.6732   -3.7035   -0.5427 C   0  0  0  0  0  0  0  0  0  0  0  0
    5.7397   -4.7268   -0.2141 C   0  0  0  0  0  0  0  0  0  0  0  0
    5.8842   -5.7737   -0.9560 N   0  0  0  0  0  0  0  0  0  0  0  0
    6.8306   -6.7110   -0.5680 C   0  0  0  0  0  0  0  0  0  0  0  0
    7.0046   -7.8714   -1.3526 C   0  0  0  0  0  0  0  0  0  0  0  0
    7.9460   -8.8268   -0.9926 C   0  0  0  0  0  0  0  0  0  0  0  0
    8.7420   -8.6554    0.1564 C   0  0  0  0  0  0  0  0  0  0  0  0
    8.5870   -7.5198    0.9411 C   0  0  0  0  0  0  0  0  0  0  0  0
    7.6367   -6.5458    0.5889 C   0  0  0  0  0  0  0  0  0  0  0  0
    7.4712   -5.3386    1.4170 C   0  0  0  0  0  0  0  0  0  0  0  0
    8.0946   -5.0574    2.4232 O   0  0  0  0  0  0  0  0  0  0  0  0
    6.4759   -4.4874    0.9191 N   0  0  0  0  0  0  0  0  0  0  0  0
    6.3084   -3.6193    1.4258 H   0  0  0  0  0  0  0  0  0  0  0  0
    4.7088    0.0216    0.0453 C   0  0  0  0  0  0  0  0  0  0  0  0
    6.2034    0.1918    0.1796 C   0  0  0  0  0  0  0  0  0  0  0  0
    3.4900    3.2389    0.3519 H   0  0  0  0  0  0  0  0  0  0  0  0
    5.0107    2.8420   -0.4745 H   0  0  0  0  0  0  0  0  0  0  0  0
    4.8762    2.6340    1.2805 H   0  0  0  0  0  0  0  0  0  0  0  0
    1.7539    1.7434    0.0831 H   0  0  0  0  0  0  0  0  0  0  0  0
    0.8587   -0.5502   -0.2669 H   0  0  0  0  0  0  0  0  0  0  0  0
    2.3923   -2.4731   -0.4521 H   0  0  0  0  0  0  0  0  0  0  0  0
    5.9858   -2.1100   -0.6221 H   0  0  0  0  0  0  0  0  0  0  0  0
    4.3929   -3.8489   -1.6021 H   0  0  0  0  0  0  0  0  0  0  0  0
    3.7831   -3.9562    0.0592 H   0  0  0  0  0  0  0  0  0  0  0  0
    6.3793   -7.9873   -2.2399 H   0  0  0  0  0  0  0  0  0  0  0  0
    8.0703   -9.7216   -1.6082 H   0  0  0  0  0  0  0  0  0  0  0  0
    9.4791   -9.4148    0.4280 H   0  0  0  0  0  0  0  0  0  0  0  0
    9.1873   -7.3537    1.8382 H   0  0  0  0  0  0  0  0  0  0  0  0
    6.6135   -0.4777    0.9553 H   0  0  0  0  0  0  0  0  0  0  0  0
    6.4874    1.2168    0.4445 H   0  0  0  0  0  0  0  0  0  0  0  0
    6.7345   -0.0500   -0.7612 H   0  0  0  0  0  0  0  0  0  0  0  0
  1  2  1  0
  1 23  1  0
  1 24  1  0
  1 25  1  0
  2  3  2  0
  2 21  1  0
  3  4  1  0
  3 26  1  0
  4  5  2  0
  4 27  1  0
  5  6  1  0
  5 28  1  0
  6  7  1  0
  6 21  2  0
  7  8  1  0
  7 29  1  0
  8  9  1  0
  8 30  1  0
  8 31  1  0
  9 10  2  0
  9 19  1  0
 10 11  1  0
 11 12  2  0
 11 16  1  0
 12 13  1  0
 12 32  1  0
 13 14  2  0
 13 33  1  0
 14 15  1  0
 14 34  1  0
 15 16  2  0
 15 35  1  0
 16 17  1  0
 17 18  2  0
 17 19  1  0
 19 20  1  0
 21 22  1  0
 22 36  1  0
 22 37  1  0
 22 38  1  0
M  END

