
     RDKit          3D

 44 46  0  0  0  0  0  0  0  0999 V2000
    3.0005    1.5694   -0.7045 C   0  0  0  0  0  0  0  0  0  0  0  0
    2.2782    0.3109   -0.2417 C   0  0  0  0  0  0  0  0  0  0  0  0
    1.1582    0.4234    0.2281 O   0  0  0  0  0  0  0  0  0  0  0  0
    3.0002   -1.0006   -0.3914 C   0  0  0  0  0  0  0  0  0  0  0  0
    4.3436   -0.9670   -0.8897 C   0  0  0  0  0  0  0  0  0  0  0  0
    5.0760   -2.1112   -1.0540 C   0  0  0  0  0  0  0  0  0  0  0  0
    6.3814   -2.2204   -1.5299 N   0  0  0  0  0  0  0  0  0  0  0  0
    7.2190   -1.2110   -1.9309 C   0  0  0  0  0  0  0  0  0  0  0  0
    6.9090   -0.0284   -1.8767 O   0  0  0  0  0  0  0  0  0  0  0  0
    8.5666   -1.6470   -2.4389 C   0  0  0  0  0  0  0  0  0  0  0  0
    8.8745   -2.9606   -2.8304 C   0  0  0  0  0  0  0  0  0  0  0  0
   10.1459   -3.2859   -3.3046 C   0  0  0  0  0  0  0  0  0  0  0  0
   11.1216   -2.2881   -3.3896 C   0  0  0  0  0  0  0  0  0  0  0  0
   12.7154   -2.6899   -3.9775 Cl  0  0  0  0  0  0  0  0  0  0  0  0
   10.8333   -0.9709   -3.0153 C   0  0  0  0  0  0  0  0  0  0  0  0
    9.5582   -0.6590   -2.5492 C   0  0  0  0  0  0  0  0  0  0  0  0
    4.5010   -3.4041   -0.7271 C   0  0  0  0  0  0  0  0  0  0  0  0
    5.1223   -4.4615   -0.8596 O   0  0  0  0  0  0  0  0  0  0  0  0
    3.1854   -3.3829   -0.2393 N   0  0  0  0  0  0  0  0  0  0  0  0
    2.6544   -4.7354    0.0730 C   0  0  0  0  0  0  0  0  0  0  0  0
    2.0689   -5.4480   -1.1012 C   0  0  0  0  0  0  0  0  0  0  0  0
    2.6039   -6.2880   -2.0397 C   0  0  0  0  0  0  0  0  0  0  0  0
    1.5330   -6.6406   -2.9255 C   0  0  0  0  0  0  0  0  0  0  0  0
    0.4282   -5.9863   -2.4611 C   0  0  0  0  0  0  0  0  0  0  0  0
    0.7397   -5.2611   -1.3573 O   0  0  0  0  0  0  0  0  0  0  0  0
    2.4299   -2.2363   -0.0724 C   0  0  0  0  0  0  0  0  0  0  0  0
    1.0313   -2.4186    0.4482 C   0  0  0  0  0  0  0  0  0  0  0  0
    2.3215    2.4178   -0.5551 H   0  0  0  0  0  0  0  0  0  0  0  0
    3.2872    1.5107   -1.7660 H   0  0  0  0  0  0  0  0  0  0  0  0
    3.9240    1.7398   -0.1287 H   0  0  0  0  0  0  0  0  0  0  0  0
    4.8201   -0.0265   -1.1482 H   0  0  0  0  0  0  0  0  0  0  0  0
    6.7082   -3.1839   -1.5176 H   0  0  0  0  0  0  0  0  0  0  0  0
    8.1201   -3.7506   -2.7989 H   0  0  0  0  0  0  0  0  0  0  0  0
   10.3819   -4.3050   -3.6146 H   0  0  0  0  0  0  0  0  0  0  0  0
   11.6051   -0.2035   -3.0936 H   0  0  0  0  0  0  0  0  0  0  0  0
    9.3031    0.3624   -2.2611 H   0  0  0  0  0  0  0  0  0  0  0  0
    1.9164   -4.6513    0.8756 H   0  0  0  0  0  0  0  0  0  0  0  0
    3.5088   -5.3160    0.4365 H   0  0  0  0  0  0  0  0  0  0  0  0
    3.6453   -6.5966   -2.0871 H   0  0  0  0  0  0  0  0  0  0  0  0
    1.5799   -7.2962   -3.7925 H   0  0  0  0  0  0  0  0  0  0  0  0
   -0.6076   -5.9413   -2.7874 H   0  0  0  0  0  0  0  0  0  0  0  0
    0.4796   -3.1553   -0.1529 H   0  0  0  0  0  0  0  0  0  0  0  0
    0.5092   -1.4600    0.4432 H   0  0  0  0  0  0  0  0  0  0  0  0
    1.0499   -2.7854    1.4895 H   0  0  0  0  0  0  0  0  0  0  0  0
  1  2  1  0
  1 28  1  0
  1 29  1  0
  1 30  1  0
  2  3  2  0
  2  4  1  0
  4  5  1  0
  4 26  2  0
  5  6  2  0
  5 31  1  0
  6  7  1  0
  6 17  1  0
  7  8  1  0
  7 32  1  0
  8  9  2  0
  8 10  1  0
 10 11  2  0
 10 16  1  0
 11 12  1  0
 11 33  1  0
 12 13  2  0
 12 34  1  0
 13 14  1  0
 13 15  1  0
 15 16  2  0
 15 35  1  0
 16 36  1  0
 17 18  2  0
 17 19  1  0
 19 20  1  0
 19 26  1  0
 20 21  1  0
 20 37  1  0
 20 38  1  0
 21 22  2  0
 21 25  1  0
 22 23  1  0
 22 39  1  0
 23 24  2  0
 23 40  1  0
 24 25  1  0
 24 41  1  0
 26 27  1  0
 27 42  1  0
 27 43  1  0
 27 44  1  0
M  END

