
     RDKit          3D

 59 61  0  0  0  0  0  0  0  0999 V2000
    2.2092    1.1123   -1.1956 C   0  0  0  0  0  0  0  0  0  0  0  0
    2.8385    0.2264   -0.2953 O   0  0  0  0  0  0  0  0  0  0  0  0
    3.4671    0.6971    0.8070 C   0  0  0  0  0  0  0  0  0  0  0  0
    3.5442    2.0731    1.1010 C   0  0  0  0  0  0  0  0  0  0  0  0
    4.2164    2.5095    2.2416 C   0  0  0  0  0  0  0  0  0  0  0  0
    4.2729    3.8287    2.5548 O   0  0  0  0  0  0  0  0  0  0  0  0
    3.6224    4.7866    1.7477 C   0  0  0  0  0  0  0  0  0  0  0  0
    4.8521    1.5833    3.1266 C   0  0  0  0  0  0  0  0  0  0  0  0
    5.6422    1.9216    4.3263 C   0  0  0  0  0  0  0  0  0  0  0  0
    6.0323    1.0049    5.0843 O   0  0  0  0  0  0  0  0  0  0  0  0
    6.0421    3.3081    4.6626 C   0  0  0  0  0  0  0  0  0  0  0  0
    6.7025    3.5552    5.8160 C   0  0  0  0  0  0  0  0  0  0  0  0
    7.1933    4.8541    6.2797 C   0  0  0  0  0  0  0  0  0  0  0  0
    7.1657    6.0039    5.4585 C   0  0  0  0  0  0  0  0  0  0  0  0
    7.6349    7.2374    5.8969 C   0  0  0  0  0  0  0  0  0  0  0  0
    8.1567    7.3644    7.1898 C   0  0  0  0  0  0  0  0  0  0  0  0
    8.2043    6.2528    8.0302 C   0  0  0  0  0  0  0  0  0  0  0  0
    7.7303    5.0167    7.5800 C   0  0  0  0  0  0  0  0  0  0  0  0
    7.8181    3.6686    8.6947 Cl  0  0  0  0  0  0  0  0  0  0  0  0
    4.7106    0.1878    2.7969 C   0  0  0  0  0  0  0  0  0  0  0  0
    5.2462   -0.7482    3.5859 O   0  0  0  0  0  0  0  0  0  0  0  0
    4.0239   -0.2669    1.6568 C   0  0  0  0  0  0  0  0  0  0  0  0
    3.9167   -1.7434    1.3658 C   0  0  0  0  0  0  0  0  0  0  0  0
    5.1320   -2.3302    0.6281 C   0  0  1  0  0  0  0  0  0  0  0  0
    6.3434   -2.1687    1.3424 O   0  0  0  0  0  0  0  0  0  0  0  0
    4.9377   -3.8231    0.3179 C   0  0  0  0  0  0  0  0  0  0  0  0
    3.7784   -4.1193   -0.5013 N   0  0  0  0  0  0  0  0  0  0  0  0
    3.8316   -3.6628   -1.8858 C   0  0  0  0  0  0  0  0  0  0  0  0
    2.6226   -4.3474   -2.5540 C   0  0  0  0  0  0  0  0  0  0  0  0
    2.3232   -5.5758   -1.6511 C   0  0  0  0  0  0  0  0  0  0  0  0
    3.4236   -5.5301   -0.5787 C   0  0  0  0  0  0  0  0  0  0  0  0
    1.7748    0.4902   -1.9891 H   0  0  0  0  0  0  0  0  0  0  0  0
    2.9288    1.8167   -1.6487 H   0  0  0  0  0  0  0  0  0  0  0  0
    1.4006    1.6860   -0.7094 H   0  0  0  0  0  0  0  0  0  0  0  0
    3.0764    2.7940    0.4390 H   0  0  0  0  0  0  0  0  0  0  0  0
    3.7966    5.7605    2.2246 H   0  0  0  0  0  0  0  0  0  0  0  0
    2.5352    4.6036    1.6951 H   0  0  0  0  0  0  0  0  0  0  0  0
    4.0345    4.8101    0.7237 H   0  0  0  0  0  0  0  0  0  0  0  0
    5.7871    4.0950    3.9605 H   0  0  0  0  0  0  0  0  0  0  0  0
    6.8847    2.7021    6.4726 H   0  0  0  0  0  0  0  0  0  0  0  0
    6.7731    5.9124    4.4443 H   0  0  0  0  0  0  0  0  0  0  0  0
    7.5999    8.1021    5.2301 H   0  0  0  0  0  0  0  0  0  0  0  0
    8.5301    8.3278    7.5451 H   0  0  0  0  0  0  0  0  0  0  0  0
    8.6079    6.3306    9.0408 H   0  0  0  0  0  0  0  0  0  0  0  0
    5.6517   -0.2478    4.3740 H   0  0  0  0  0  0  0  0  0  0  0  0
    3.0257   -1.9468    0.7583 H   0  0  0  0  0  0  0  0  0  0  0  0
    3.7940   -2.2894    2.3164 H   0  0  0  0  0  0  0  0  0  0  0  0
    5.2488   -1.7829   -0.3266 H   0  0  0  0  0  0  0  0  0  0  0  0
    6.1346   -1.9435    2.2620 H   0  0  0  0  0  0  0  0  0  0  0  0
    4.8297   -4.3526    1.2803 H   0  0  0  0  0  0  0  0  0  0  0  0
    5.8829   -4.1943   -0.1424 H   0  0  0  0  0  0  0  0  0  0  0  0
    4.7800   -3.9833   -2.3792 H   0  0  0  0  0  0  0  0  0  0  0  0
    3.7875   -2.5644   -1.9482 H   0  0  0  0  0  0  0  0  0  0  0  0
    2.8474   -4.6308   -3.5934 H   0  0  0  0  0  0  0  0  0  0  0  0
    1.7573   -3.6680   -2.5834 H   0  0  0  0  0  0  0  0  0  0  0  0
    2.3326   -6.5262   -2.2057 H   0  0  0  0  0  0  0  0  0  0  0  0
    1.3311   -5.4781   -1.1850 H   0  0  0  0  0  0  0  0  0  0  0  0
    4.2948   -6.1529   -0.8944 H   0  0  0  0  0  0  0  0  0  0  0  0
    3.0949   -5.9077    0.4034 H   0  0  0  0  0  0  0  0  0  0  0  0
  1  2  1  0
  1 32  1  0
  1 33  1  0
  1 34  1  0
  2  3  1  0
  3  4  2  0
  3 22  1  0
  4  5  1  0
  4 35  1  0
  5  6  1  0
  5  8  2  0
  6  7  1  0
  7 36  1  0
  7 37  1  0
  7 38  1  0
  8  9  1  0
  8 20  1  0
  9 10  2  0
  9 11  1  0
 11 12  2  0
 11 39  1  0
 12 13  1  0
 12 40  1  0
 13 14  2  0
 13 18  1  0
 14 15  1  0
 14 41  1  0
 15 16  2  0
 15 42  1  0
 16 17  1  0
 16 43  1  0
 17 18  2  0
 17 44  1  0
 18 19  1  0
 20 21  1  0
 20 22  2  0
 21 45  1  0
 22 23  1  0
 23 24  1  0
 23 46  1  0
 23 47  1  0
 24 25  1  0
 24 26  1  0
 24 48  1  6
 25 49  1  0
 26 27  1  0
 26 50  1  0
 26 51  1  0
 27 28  1  0
 27 31  1  0
 28 29  1  0
 28 52  1  0
 28 53  1  0
 29 30  1  0
 29 54  1  0
 29 55  1  0
 30 31  1  0
 30 56  1  0
 30 57  1  0
 31 58  1  0
 31 59  1  0
M  END

