
     RDKit          3D

 51 54  0  0  0  0  0  0  0  0999 V2000
    1.6540    0.7963    0.7646 O   0  0  0  0  0  0  0  0  0  0  0  0
    2.2740    0.1563   -0.0685 C   0  0  0  0  0  0  0  0  0  0  0  0
    1.8669   -1.2639   -0.3749 C   0  0  0  0  0  0  0  0  0  0  0  0
    0.4960   -1.5617   -0.3032 C   0  0  0  0  0  0  0  0  0  0  0  0
    0.0412   -2.8626   -0.5040 C   0  0  0  0  0  0  0  0  0  0  0  0
    0.9581   -3.8917   -0.7544 C   0  0  0  0  0  0  0  0  0  0  0  0
    0.4636   -5.2934   -1.0187 C   0  0  1  0  0  0  0  0  0  0  0  0
   -0.6666   -5.5601   -0.3418 F   0  0  0  0  0  0  0  0  0  0  0  0
    0.1919   -5.4801   -2.3249 F   0  0  0  0  0  0  0  0  0  0  0  0
    1.3736   -6.2195   -0.6710 F   0  0  0  0  0  0  0  0  0  0  0  0
    2.3276   -3.6118   -0.7964 C   0  0  0  0  0  0  0  0  0  0  0  0
    2.7795   -2.3037   -0.6119 C   0  0  0  0  0  0  0  0  0  0  0  0
    3.3800    0.6876   -0.7221 N   0  0  0  0  0  0  0  0  0  0  0  0
    3.7187    2.0892   -0.4632 C   0  0  0  0  0  0  0  0  0  0  0  0
    3.2155    2.9009   -1.6628 C   0  0  0  0  0  0  0  0  0  0  0  0
    3.4559    1.8174   -3.1326 S   0  0  0  0  0  0  0  0  0  0  0  0
    3.8101    0.3008   -2.0535 C   0  0  1  0  0  0  0  0  0  0  0  0
    3.1582   -0.4938   -2.4382 H   0  0  0  0  0  0  0  0  0  0  0  0
    5.2637   -0.1385   -2.1452 C   0  0  0  0  0  0  0  0  0  0  0  0
    6.0379   -0.3864   -1.0086 C   0  0  0  0  0  0  0  0  0  0  0  0
    7.3636   -0.8337   -1.1035 C   0  0  0  0  0  0  0  0  0  0  0  0
    7.9351   -1.0518   -2.3635 C   0  0  0  0  0  0  0  0  0  0  0  0
    9.2039   -1.4837   -2.5742 O   0  0  0  0  0  0  0  0  0  0  0  0
   10.0417   -1.7608   -1.4681 C   0  0  0  0  0  0  0  0  0  0  0  0
   11.3840   -2.2609   -1.9498 C   0  0  0  0  0  0  0  0  0  0  0  0
   12.5138   -2.1044   -1.1337 C   0  0  0  0  0  0  0  0  0  0  0  0
   13.7554   -2.6060   -1.5323 C   0  0  0  0  0  0  0  0  0  0  0  0
   13.8838   -3.2633   -2.7596 C   0  0  0  0  0  0  0  0  0  0  0  0
   12.7634   -3.4152   -3.5816 C   0  0  0  0  0  0  0  0  0  0  0  0
   11.5197   -2.9199   -3.1794 C   0  0  0  0  0  0  0  0  0  0  0  0
    7.1630   -0.8109   -3.5160 C   0  0  0  0  0  0  0  0  0  0  0  0
    5.8551   -0.3602   -3.4035 C   0  0  0  0  0  0  0  0  0  0  0  0
   -0.2047   -0.7565   -0.0766 H   0  0  0  0  0  0  0  0  0  0  0  0
   -1.0262   -3.0853   -0.4522 H   0  0  0  0  0  0  0  0  0  0  0  0
    3.0436   -4.4182   -0.9642 H   0  0  0  0  0  0  0  0  0  0  0  0
    3.8519   -2.1043   -0.6335 H   0  0  0  0  0  0  0  0  0  0  0  0
    4.8121    2.1818   -0.3744 H   0  0  0  0  0  0  0  0  0  0  0  0
    3.2457    2.3994    0.4758 H   0  0  0  0  0  0  0  0  0  0  0  0
    3.7837    3.8330   -1.7942 H   0  0  0  0  0  0  0  0  0  0  0  0
    2.1477    3.1445   -1.5593 H   0  0  0  0  0  0  0  0  0  0  0  0
    5.6043   -0.2302   -0.0183 H   0  0  0  0  0  0  0  0  0  0  0  0
    7.9302   -1.0051   -0.1884 H   0  0  0  0  0  0  0  0  0  0  0  0
    9.5649   -2.5253   -0.8221 H   0  0  0  0  0  0  0  0  0  0  0  0
   10.1761   -0.8539   -0.8493 H   0  0  0  0  0  0  0  0  0  0  0  0
   12.4239   -1.5812   -0.1767 H   0  0  0  0  0  0  0  0  0  0  0  0
   14.6269   -2.4751   -0.8857 H   0  0  0  0  0  0  0  0  0  0  0  0
   14.8553   -3.6514   -3.0760 H   0  0  0  0  0  0  0  0  0  0  0  0
   12.8571   -3.9231   -4.5451 H   0  0  0  0  0  0  0  0  0  0  0  0
   10.6461   -3.0327   -3.8233 H   0  0  0  0  0  0  0  0  0  0  0  0
    7.6207   -0.9801   -4.4927 H   0  0  0  0  0  0  0  0  0  0  0  0
    5.2825   -0.1640   -4.3138 H   0  0  0  0  0  0  0  0  0  0  0  0
  1  2  2  0
  2  3  1  0
  2 13  1  0
  3  4  2  0
  3 12  1  0
  4  5  1  0
  4 33  1  0
  5  6  2  0
  5 34  1  0
  6  7  1  0
  6 11  1  0
  7  8  1  1
  7  9  1  0
  7 10  1  0
 11 12  2  0
 11 35  1  0
 12 36  1  0
 13 14  1  0
 13 17  1  0
 14 15  1  0
 14 37  1  0
 14 38  1  0
 15 16  1  0
 15 39  1  0
 15 40  1  0
 16 17  1  0
 17 18  1  6
 17 19  1  0
 19 20  2  0
 19 32  1  0
 20 21  1  0
 20 41  1  0
 21 22  2  0
 21 42  1  0
 22 23  1  0
 22 31  1  0
 23 24  1  0
 24 25  1  0
 24 43  1  0
 24 44  1  0
 25 26  2  0
 25 30  1  0
 26 27  1  0
 26 45  1  0
 27 28  2  0
 27 46  1  0
 28 29  1  0
 28 47  1  0
 29 30  2  0
 29 48  1  0
 30 49  1  0
 31 32  2  0
 31 50  1  0
 32 51  1  0
M  END

