
     RDKit          3D

 61 64  0  0  0  0  0  0  0  0999 V2000
    1.6486    1.3076   -0.0913 C   0  0  0  0  0  0  0  0  0  0  0  0
    2.3980    0.1656    0.2569 O   0  0  0  0  0  0  0  0  0  0  0  0
    3.4525    0.2983    1.1059 C   0  0  0  0  0  0  0  0  0  0  0  0
    3.8868    1.5133    1.6503 C   0  0  0  0  0  0  0  0  0  0  0  0
    4.9666    1.5512    2.5404 C   0  0  0  0  0  0  0  0  0  0  0  0
    5.6425    0.3830    2.9093 C   0  0  0  0  0  0  0  0  0  0  0  0
    6.7720    0.4182    3.9137 C   0  0  0  0  0  0  0  0  0  0  0  0
    6.2645    0.3269    5.3696 C   0  0  0  0  0  0  0  0  0  0  0  0
    7.3274    0.3820    6.3550 N   0  0  0  0  0  0  0  0  0  0  0  0
    7.7502    1.5731    6.8881 C   0  0  0  0  0  0  0  0  0  0  0  0
    7.2950    2.6745    6.6610 O   0  0  0  0  0  0  0  0  0  0  0  0
    8.9082    1.2144    7.8142 C   0  0  0  0  0  0  0  0  0  0  0  0
    9.5286    2.0223    8.5186 O   0  0  0  0  0  0  0  0  0  0  0  0
    9.1321   -0.2011    7.7107 C   0  0  0  0  0  0  0  0  0  0  0  0
   10.1600   -0.7649    8.4609 C   0  0  0  0  0  0  0  0  0  0  0  0
   10.8548    0.0234    9.2620 O   0  0  0  0  0  0  0  0  0  0  0  0
   10.5834   -2.1786    8.5018 C   0  0  0  0  0  0  0  0  0  0  0  0
   10.4019   -3.0611    7.4245 C   0  0  0  0  0  0  0  0  0  0  0  0
   10.8452   -4.3814    7.5032 C   0  0  0  0  0  0  0  0  0  0  0  0
   11.4752   -4.8708    8.6569 C   0  0  0  0  0  0  0  0  0  0  0  0
   11.9558   -6.2968    8.7475 C   0  0  0  0  0  0  0  0  0  0  0  0
   11.6612   -3.9816    9.7310 C   0  0  0  0  0  0  0  0  0  0  0  0
   11.2360   -2.6598    9.6553 C   0  0  0  0  0  0  0  0  0  0  0  0
    8.0869   -0.8055    6.7848 C   0  0  1  0  0  0  0  0  0  0  0  0
    8.5529   -1.2580    5.8901 H   0  0  0  0  0  0  0  0  0  0  0  0
    7.1729   -1.8570    7.4146 C   0  0  0  0  0  0  0  0  0  0  0  0
    6.5436   -1.6135    8.6453 C   0  0  0  0  0  0  0  0  0  0  0  0
    5.6770   -2.5569    9.1987 C   0  0  0  0  0  0  0  0  0  0  0  0
    5.4244   -3.7601    8.5288 C   0  0  0  0  0  0  0  0  0  0  0  0
    6.0410   -4.0099    7.3016 C   0  0  0  0  0  0  0  0  0  0  0  0
    6.9085   -3.0607    6.7494 C   0  0  0  0  0  0  0  0  0  0  0  0
    5.2079   -0.8297    2.3490 C   0  0  0  0  0  0  0  0  0  0  0  0
    4.1363   -0.8923    1.4579 C   0  0  0  0  0  0  0  0  0  0  0  0
    3.7393   -2.1164    0.9999 O   0  0  0  0  0  0  0  0  0  0  0  0
    3.8370   -2.3614   -0.3950 C   0  0  0  0  0  0  0  0  0  0  0  0
    0.8456    0.9640   -0.7572 H   0  0  0  0  0  0  0  0  0  0  0  0
    2.2606    2.0566   -0.6261 H   0  0  0  0  0  0  0  0  0  0  0  0
    1.1972    1.7872    0.7958 H   0  0  0  0  0  0  0  0  0  0  0  0
    3.3811    2.4436    1.3907 H   0  0  0  0  0  0  0  0  0  0  0  0
    5.2820    2.5141    2.9518 H   0  0  0  0  0  0  0  0  0  0  0  0
    7.3421    1.3549    3.8091 H   0  0  0  0  0  0  0  0  0  0  0  0
    7.4725   -0.4110    3.7170 H   0  0  0  0  0  0  0  0  0  0  0  0
    5.6871   -0.5992    5.5156 H   0  0  0  0  0  0  0  0  0  0  0  0
    5.5954    1.1764    5.5711 H   0  0  0  0  0  0  0  0  0  0  0  0
   10.4879    0.9675    9.1619 H   0  0  0  0  0  0  0  0  0  0  0  0
    9.9420   -2.7136    6.5006 H   0  0  0  0  0  0  0  0  0  0  0  0
   10.7009   -5.0454    6.6467 H   0  0  0  0  0  0  0  0  0  0  0  0
   11.6516   -6.8858    7.8702 H   0  0  0  0  0  0  0  0  0  0  0  0
   11.5590   -6.7948    9.6473 H   0  0  0  0  0  0  0  0  0  0  0  0
   13.0561   -6.3398    8.8171 H   0  0  0  0  0  0  0  0  0  0  0  0
   12.1525   -4.3347   10.6422 H   0  0  0  0  0  0  0  0  0  0  0  0
   11.3982   -1.9800   10.4925 H   0  0  0  0  0  0  0  0  0  0  0  0
    6.7346   -0.6765    9.1747 H   0  0  0  0  0  0  0  0  0  0  0  0
    5.1950   -2.3535   10.1584 H   0  0  0  0  0  0  0  0  0  0  0  0
    4.7460   -4.4985    8.9636 H   0  0  0  0  0  0  0  0  0  0  0  0
    5.8467   -4.9442    6.7686 H   0  0  0  0  0  0  0  0  0  0  0  0
    7.3849   -3.2615    5.7850 H   0  0  0  0  0  0  0  0  0  0  0  0
    5.7006   -1.7731    2.5988 H   0  0  0  0  0  0  0  0  0  0  0  0
    3.5431   -3.4092   -0.5509 H   0  0  0  0  0  0  0  0  0  0  0  0
    4.8752   -2.2268   -0.7513 H   0  0  0  0  0  0  0  0  0  0  0  0
    3.1685   -1.7075   -0.9760 H   0  0  0  0  0  0  0  0  0  0  0  0
  1  2  1  0
  1 36  1  0
  1 37  1  0
  1 38  1  0
  2  3  1  0
  3  4  2  0
  3 33  1  0
  4  5  1  0
  4 39  1  0
  5  6  2  0
  5 40  1  0
  6  7  1  0
  6 32  1  0
  7  8  1  0
  7 41  1  0
  7 42  1  0
  8  9  1  0
  8 43  1  0
  8 44  1  0
  9 10  1  0
  9 24  1  0
 10 11  2  0
 10 12  1  0
 12 13  2  0
 12 14  1  0
 14 15  2  0
 14 24  1  0
 15 16  1  0
 15 17  1  0
 16 45  1  0
 17 18  2  0
 17 23  1  0
 18 19  1  0
 18 46  1  0
 19 20  2  0
 19 47  1  0
 20 21  1  0
 20 22  1  0
 21 48  1  0
 21 49  1  0
 21 50  1  0
 22 23  2  0
 22 51  1  0
 23 52  1  0
 24 25  1  6
 24 26  1  0
 26 27  2  0
 26 31  1  0
 27 28  1  0
 27 53  1  0
 28 29  2  0
 28 54  1  0
 29 30  1  0
 29 55  1  0
 30 31  2  0
 30 56  1  0
 31 57  1  0
 32 33  2  0
 32 58  1  0
 33 34  1  0
 34 35  1  0
 35 59  1  0
 35 60  1  0
 35 61  1  0
M  END

