
     RDKit          3D

 44 46  0  0  0  0  0  0  0  0999 V2000
    1.0584    0.3682    0.3424 C   0  0  0  0  0  0  0  0  0  0  0  0
    2.4952   -0.0656   -0.0061 C   0  0  1  0  0  0  0  0  0  0  0  0
    3.2901   -0.3838    1.2729 C   0  0  0  0  0  0  0  0  0  0  0  0
    2.4621   -1.4178   -0.7746 C   0  0  0  0  0  0  0  0  0  0  0  0
    1.8960   -1.3525   -2.0543 O   0  0  0  0  0  0  0  0  0  0  0  0
    2.6623   -0.4945   -2.8744 C   0  0  0  0  0  0  0  0  0  0  0  0
    2.6832    0.9110   -2.3095 C   0  0  0  0  0  0  0  0  0  0  0  0
    3.1365    0.9466   -0.9057 N   0  0  0  0  0  0  0  0  0  0  0  0
    3.7557    2.1414   -0.5556 C   0  0  0  0  0  0  0  0  0  0  0  0
    4.0559    2.9588   -1.4160 O   0  0  0  0  0  0  0  0  0  0  0  0
    4.0726    2.4689    0.9032 C   0  0  0  0  0  0  0  0  0  0  0  0
    4.6848    3.8739    1.0484 C   0  0  0  0  0  0  0  0  0  0  0  0
    4.9564    4.2573    2.4751 C   0  0  0  0  0  0  0  0  0  0  0  0
    3.7103    5.0991    3.3919 S   0  0  0  0  0  0  0  0  0  0  0  0
    4.7890    5.1160    4.7876 C   0  0  0  0  0  0  0  0  0  0  0  0
    4.3854    5.6412    5.9897 N   0  0  0  0  0  0  0  0  0  0  0  0
    5.9361    4.5522    4.5835 N   0  0  0  0  0  0  0  0  0  0  0  0
    6.0494    4.0506    3.2944 C   0  0  0  0  0  0  0  0  0  0  0  0
    7.3165    3.3896    2.9729 C   0  0  0  0  0  0  0  0  0  0  0  0
    8.4027    3.2918    3.8227 C   0  0  0  0  0  0  0  0  0  0  0  0
    9.5036    2.5868    3.2593 C   0  0  0  0  0  0  0  0  0  0  0  0
    9.2552    2.1430    1.9848 C   0  0  0  0  0  0  0  0  0  0  0  0
    7.6690    2.5869    1.4564 S   0  0  0  0  0  0  0  0  0  0  0  0
    0.5935   -0.3537    1.0327 H   0  0  0  0  0  0  0  0  0  0  0  0
    0.4301    0.4178   -0.5586 H   0  0  0  0  0  0  0  0  0  0  0  0
    1.0505    1.3559    0.8289 H   0  0  0  0  0  0  0  0  0  0  0  0
    2.9285   -1.3433    1.6760 H   0  0  0  0  0  0  0  0  0  0  0  0
    3.1578    0.3590    2.0666 H   0  0  0  0  0  0  0  0  0  0  0  0
    4.3640   -0.4943    1.0635 H   0  0  0  0  0  0  0  0  0  0  0  0
    1.8621   -2.1334   -0.1926 H   0  0  0  0  0  0  0  0  0  0  0  0
    3.4999   -1.8071   -0.8359 H   0  0  0  0  0  0  0  0  0  0  0  0
    2.2005   -0.4927   -3.8732 H   0  0  0  0  0  0  0  0  0  0  0  0
    3.6966   -0.8853   -2.9706 H   0  0  0  0  0  0  0  0  0  0  0  0
    1.6710    1.3509   -2.3895 H   0  0  0  0  0  0  0  0  0  0  0  0
    3.3561    1.5542   -2.8877 H   0  0  0  0  0  0  0  0  0  0  0  0
    4.7712    1.7262    1.3123 H   0  0  0  0  0  0  0  0  0  0  0  0
    3.1576    2.4006    1.5118 H   0  0  0  0  0  0  0  0  0  0  0  0
    4.0113    4.6088    0.5825 H   0  0  0  0  0  0  0  0  0  0  0  0
    5.6115    3.9282    0.4585 H   0  0  0  0  0  0  0  0  0  0  0  0
    3.6952    6.3825    5.9738 H   0  0  0  0  0  0  0  0  0  0  0  0
    5.1386    5.7742    6.6570 H   0  0  0  0  0  0  0  0  0  0  0  0
    8.3805    3.7249    4.8216 H   0  0  0  0  0  0  0  0  0  0  0  0
   10.4470    2.4149    3.7804 H   0  0  0  0  0  0  0  0  0  0  0  0
    9.9127    1.5860    1.3190 H   0  0  0  0  0  0  0  0  0  0  0  0
  2  1  1  1
  1 24  1  0
  1 25  1  0
  1 26  1  0
  2  3  1  0
  2  4  1  0
  2  8  1  0
  3 27  1  0
  3 28  1  0
  3 29  1  0
  4  5  1  0
  4 30  1  0
  4 31  1  0
  5  6  1  0
  6  7  1  0
  6 32  1  0
  6 33  1  0
  7  8  1  0
  7 34  1  0
  7 35  1  0
  8  9  1  0
  9 10  2  0
  9 11  1  0
 11 12  1  0
 11 36  1  0
 11 37  1  0
 12 13  1  0
 12 38  1  0
 12 39  1  0
 13 14  1  0
 13 18  2  0
 14 15  1  0
 15 16  1  0
 15 17  2  0
 16 40  1  0
 16 41  1  0
 17 18  1  0
 18 19  1  0
 19 20  2  0
 19 23  1  0
 20 21  1  0
 20 42  1  0
 21 22  2  0
 21 43  1  0
 22 23  1  0
 22 44  1  0
M  END

