
     RDKit          3D

 37 38  0  0  0  0  0  0  0  0999 V2000
    2.4874    0.2201    1.5026 C   0  0  0  0  0  0  0  0  0  0  0  0
    2.2637   -0.0340    0.0104 C   0  0  2  0  0  0  0  0  0  0  0  0
    1.1783   -0.0325   -0.1852 H   0  0  0  0  0  0  0  0  0  0  0  0
    2.8438   -1.3859   -0.4397 C   0  0  0  0  0  0  0  0  0  0  0  0
    2.7106   -1.6313   -1.9569 C   0  0  1  0  0  0  0  0  0  0  0  0
    3.3423   -2.5014   -2.2104 H   0  0  0  0  0  0  0  0  0  0  0  0
    1.2758   -1.9520   -2.3963 C   0  0  0  0  0  0  0  0  0  0  0  0
    3.3008   -0.4299   -2.7180 C   0  0  0  0  0  0  0  0  0  0  0  0
    2.7341    0.8412   -2.2652 N   0  0  0  0  0  0  0  0  0  0  0  0
    1.9898    1.5892   -3.1283 C   0  0  0  0  0  0  0  0  0  0  0  0
    1.7441    1.2722   -4.2806 O   0  0  0  0  0  0  0  0  0  0  0  0
    1.5609    2.9775   -2.6723 C   0  0  0  0  0  0  0  0  0  0  0  0
    2.5002    4.0187   -2.7329 C   0  0  0  0  0  0  0  0  0  0  0  0
    2.1350    5.3490   -2.5267 C   0  0  0  0  0  0  0  0  0  0  0  0
    0.7968    5.6661   -2.2662 C   0  0  0  0  0  0  0  0  0  0  0  0
    0.3305    7.3256   -2.0111 Cl  0  0  0  0  0  0  0  0  0  0  0  0
   -0.1666    4.6608   -2.2068 C   0  0  0  0  0  0  0  0  0  0  0  0
    0.2339    3.3380   -2.4014 C   0  0  0  0  0  0  0  0  0  0  0  0
   -0.8094    2.2999   -2.2688 N   0  0  0  0  0  0  0  0  0  0  0  0
   -0.4406    1.1727   -1.9731 O   0  0  0  0  0  0  0  0  0  0  0  0
   -1.9676    2.6352   -2.4346 O   0  0  0  0  0  0  0  0  0  0  0  0
    2.8684    1.1007   -0.8368 C   0  0  0  0  0  0  0  0  0  0  0  0
    3.5631    0.2487    1.7482 H   0  0  0  0  0  0  0  0  0  0  0  0
    2.0304   -0.5762    2.1111 H   0  0  0  0  0  0  0  0  0  0  0  0
    2.0454    1.1783    1.8220 H   0  0  0  0  0  0  0  0  0  0  0  0
    2.3604   -2.2048    0.1200 H   0  0  0  0  0  0  0  0  0  0  0  0
    3.9154   -1.4144   -0.1644 H   0  0  0  0  0  0  0  0  0  0  0  0
    0.5897   -1.1067   -2.2390 H   0  0  0  0  0  0  0  0  0  0  0  0
    0.8816   -2.8166   -1.8376 H   0  0  0  0  0  0  0  0  0  0  0  0
    1.2430   -2.2014   -3.4686 H   0  0  0  0  0  0  0  0  0  0  0  0
    3.1181   -0.5077   -3.7970 H   0  0  0  0  0  0  0  0  0  0  0  0
    4.3940   -0.3926   -2.5526 H   0  0  0  0  0  0  0  0  0  0  0  0
    3.5416    3.7785   -2.9599 H   0  0  0  0  0  0  0  0  0  0  0  0
    2.8803    6.1446   -2.5744 H   0  0  0  0  0  0  0  0  0  0  0  0
   -1.2142    4.8828   -2.0099 H   0  0  0  0  0  0  0  0  0  0  0  0
    2.3878    2.0571   -0.5914 H   0  0  0  0  0  0  0  0  0  0  0  0
    3.9442    1.2048   -0.5907 H   0  0  0  0  0  0  0  0  0  0  0  0
  1  2  1  0
  1 23  1  0
  1 24  1  0
  1 25  1  0
  2  3  1  1
  2  4  1  0
  2 22  1  0
  4  5  1  0
  4 26  1  0
  4 27  1  0
  5  6  1  6
  5  7  1  0
  5  8  1  0
  7 28  1  0
  7 29  1  0
  7 30  1  0
  8  9  1  0
  8 31  1  0
  8 32  1  0
  9 10  1  0
  9 22  1  0
 10 11  2  0
 10 12  1  0
 12 13  2  0
 12 18  1  0
 13 14  1  0
 13 33  1  0
 14 15  2  0
 14 34  1  0
 15 16  1  0
 15 17  1  0
 17 18  2  0
 17 35  1  0
 18 19  1  0
 19 20  2  0
 19 21  1  0
 22 36  1  0
 22 37  1  0
M  CHG  2  19   1  21  -1
M  END

