
     RDKit          3D

 47 49  0  0  0  0  0  0  0  0999 V2000
    3.1333   -3.4630   -4.3607 N   0  0  0  0  0  0  0  0  0  0  0  0
    3.1704   -2.2078   -3.6326 C   0  0  0  0  0  0  0  0  0  0  0  0
    3.7045   -2.4190   -2.2198 C   0  0  1  0  0  0  0  0  0  0  0  0
    3.6083   -1.2216   -1.5541 F   0  0  0  0  0  0  0  0  0  0  0  0
    2.8400   -3.2800   -1.5743 F   0  0  0  0  0  0  0  0  0  0  0  0
    5.1194   -2.9544   -2.1116 C   0  0  0  0  0  0  0  0  0  0  0  0
    5.5460   -3.2765   -0.6800 C   0  0  0  0  0  0  0  0  0  0  0  0
    6.9014   -3.8001   -0.6551 N   0  0  0  0  0  0  0  0  0  0  0  0
    7.3708   -4.1915    0.6572 C   0  0  0  0  0  0  0  0  0  0  0  0
    8.8076   -4.6884    0.5924 C   0  0  1  0  0  0  0  0  0  0  0  0
    8.8705   -5.5472   -0.0944 H   0  0  0  0  0  0  0  0  0  0  0  0
    9.6469   -3.6264    0.0633 O   0  0  0  0  0  0  0  0  0  0  0  0
   10.7461   -3.4222    0.9071 C   0  0  1  0  0  0  0  0  0  0  0  0
   11.6025   -4.0618    0.6168 H   0  0  0  0  0  0  0  0  0  0  0  0
   11.1529   -2.0225    0.8085 N   0  0  0  0  0  0  0  0  0  0  0  0
   10.9002   -1.1428   -0.2311 C   0  0  0  0  0  0  0  0  0  0  0  0
   11.4734    0.0260   -0.0820 N   0  0  0  0  0  0  0  0  0  0  0  0
   12.1541   -0.0780    1.1099 C   0  0  0  0  0  0  0  0  0  0  0  0
   12.9709    0.8218    1.8379 C   0  0  0  0  0  0  0  0  0  0  0  0
   13.2247    2.0721    1.4026 N   0  0  0  0  0  0  0  0  0  0  0  0
   13.5078    0.4084    2.9998 N   0  0  0  0  0  0  0  0  0  0  0  0
   13.2544   -0.8281    3.4322 C   0  0  0  0  0  0  0  0  0  0  0  0
   12.5036   -1.7650    2.8431 N   0  0  0  0  0  0  0  0  0  0  0  0
   11.9737   -1.3449    1.6821 C   0  0  0  0  0  0  0  0  0  0  0  0
   10.2702   -3.8471    2.3126 C   0  0  2  0  0  0  0  0  0  0  0  0
    9.6195   -3.0437    2.7117 H   0  0  0  0  0  0  0  0  0  0  0  0
   11.2806   -4.2138    3.1980 O   0  0  0  0  0  0  0  0  0  0  0  0
    9.4204   -5.0761    1.9460 C   0  0  2  0  0  0  0  0  0  0  0  0
    8.6389   -5.2670    2.7070 H   0  0  0  0  0  0  0  0  0  0  0  0
   10.2622   -6.1919    1.7829 O   0  0  0  0  0  0  0  0  0  0  0  0
    2.8824   -3.3106   -5.3355 H   0  0  0  0  0  0  0  0  0  0  0  0
    2.4251   -4.0784   -3.9608 H   0  0  0  0  0  0  0  0  0  0  0  0
    2.1945   -1.6926   -3.5120 H   0  0  0  0  0  0  0  0  0  0  0  0
    3.8454   -1.5040   -4.1451 H   0  0  0  0  0  0  0  0  0  0  0  0
    5.7902   -2.1943   -2.5478 H   0  0  0  0  0  0  0  0  0  0  0  0
    5.1941   -3.8507   -2.7439 H   0  0  0  0  0  0  0  0  0  0  0  0
    4.8672   -4.0428   -0.2701 H   0  0  0  0  0  0  0  0  0  0  0  0
    5.4126   -2.3746   -0.0424 H   0  0  0  0  0  0  0  0  0  0  0  0
    7.5514   -3.1193   -1.0477 H   0  0  0  0  0  0  0  0  0  0  0  0
    6.7401   -5.0174    1.0323 H   0  0  0  0  0  0  0  0  0  0  0  0
    7.3011   -3.3752    1.4150 H   0  0  0  0  0  0  0  0  0  0  0  0
   10.2724   -1.4456   -1.0670 H   0  0  0  0  0  0  0  0  0  0  0  0
   12.8295    2.3933    0.5296 H   0  0  0  0  0  0  0  0  0  0  0  0
   13.8180    2.6768    1.9549 H   0  0  0  0  0  0  0  0  0  0  0  0
   13.7161   -1.1104    4.3852 H   0  0  0  0  0  0  0  0  0  0  0  0
   11.8746   -3.4289    3.2988 H   0  0  0  0  0  0  0  0  0  0  0  0
   10.9559   -6.0948    2.4579 H   0  0  0  0  0  0  0  0  0  0  0  0
  1  2  1  0
  1 31  1  0
  1 32  1  0
  2  3  1  0
  2 33  1  0
  2 34  1  0
  3  4  1  1
  3  5  1  0
  3  6  1  0
  6  7  1  0
  6 35  1  0
  6 36  1  0
  7  8  1  0
  7 37  1  0
  7 38  1  0
  8  9  1  0
  8 39  1  0
  9 10  1  0
  9 40  1  0
  9 41  1  0
 10 11  1  6
 10 12  1  0
 10 28  1  0
 12 13  1  0
 13 14  1  6
 13 15  1  0
 13 25  1  0
 15 16  1  0
 15 24  1  0
 16 17  2  0
 16 42  1  0
 17 18  1  0
 18 19  1  0
 18 24  2  0
 19 20  1  0
 19 21  2  0
 20 43  1  0
 20 44  1  0
 21 22  1  0
 22 23  2  0
 22 45  1  0
 23 24  1  0
 25 26  1  1
 25 27  1  0
 25 28  1  0
 27 46  1  0
 28 29  1  1
 28 30  1  0
 30 47  1  0
M  END

