
     RDKit          3D

 47 49  0  0  0  0  0  0  0  0999 V2000
    2.2803    1.9573   -0.8097 C   0  0  0  0  0  0  0  0  0  0  0  0
    2.7874    0.5534   -0.8719 C   0  0  0  0  0  0  0  0  0  0  0  0
    3.9764    0.2204   -1.2700 N   0  0  0  0  0  0  0  0  0  0  0  0
    4.2189   -1.1174   -1.2360 N   0  0  0  0  0  0  0  0  0  0  0  0
    3.2063   -1.8174   -0.8133 C   0  0  0  0  0  0  0  0  0  0  0  0
    3.1505   -3.5676   -0.6267 S   0  0  0  0  0  0  0  0  0  0  0  0
    4.7561   -4.0438   -1.4001 C   0  0  0  0  0  0  0  0  0  0  0  0
    5.7909   -4.7317   -0.4673 C   0  0  1  0  0  0  0  0  0  0  0  0
    6.9800   -5.0671   -1.4069 C   0  0  0  0  0  0  0  0  0  0  0  0
    7.2984   -6.1927   -1.7072 O   0  0  0  0  0  0  0  0  0  0  0  0
    7.5624   -3.9517   -1.8551 O   0  0  0  0  0  0  0  0  0  0  0  0
    8.6955   -3.9564   -2.8041 C   0  0  1  0  0  0  0  0  0  0  0  0
    8.2585   -4.6021   -4.1218 C   0  0  0  0  0  0  0  0  0  0  0  0
    8.9845   -2.4673   -2.9933 C   0  0  0  0  0  0  0  0  0  0  0  0
    9.8934   -4.6732   -2.1752 C   0  0  0  0  0  0  0  0  0  0  0  0
    6.2587   -3.7398    0.6579 C   0  0  0  0  0  0  0  0  0  0  0  0
    6.2843   -4.4105    2.3720 S   0  0  0  0  0  0  0  0  0  0  0  0
    4.5473   -4.9688    2.2861 C   0  0  2  0  0  0  0  0  0  0  0  0
    3.8915   -4.0879    2.1924 H   0  0  0  0  0  0  0  0  0  0  0  0
    4.0183   -6.0551    3.2908 C   0  0  1  0  0  0  0  0  0  0  0  0
    2.8738   -5.8636    4.1231 N   0  0  0  0  0  0  0  0  0  0  0  0
    3.8861   -6.9469    2.0236 C   0  0  0  0  0  0  0  0  0  0  0  0
    3.5741   -8.0830    1.7896 O   0  0  0  0  0  0  0  0  0  0  0  0
    4.3670   -5.9344    1.2009 N   0  0  0  0  0  0  0  0  0  0  0  0
    5.2707   -6.0875    0.0723 C   0  0  0  0  0  0  0  0  0  0  0  0
    1.8063   -0.8402   -0.4028 S   0  0  0  0  0  0  0  0  0  0  0  0
    3.0799    2.6267   -1.1549 H   0  0  0  0  0  0  0  0  0  0  0  0
    1.9975    2.2396    0.2171 H   0  0  0  0  0  0  0  0  0  0  0  0
    1.3963    2.0967   -1.4522 H   0  0  0  0  0  0  0  0  0  0  0  0
    5.1757   -3.1187   -1.8150 H   0  0  0  0  0  0  0  0  0  0  0  0
    4.4978   -4.7229   -2.2262 H   0  0  0  0  0  0  0  0  0  0  0  0
    7.3688   -4.0929   -4.5242 H   0  0  0  0  0  0  0  0  0  0  0  0
    8.0312   -5.6677   -3.9900 H   0  0  0  0  0  0  0  0  0  0  0  0
    9.0673   -4.5059   -4.8626 H   0  0  0  0  0  0  0  0  0  0  0  0
    8.1010   -1.9459   -3.3908 H   0  0  0  0  0  0  0  0  0  0  0  0
    9.8185   -2.3310   -3.6981 H   0  0  0  0  0  0  0  0  0  0  0  0
    9.2577   -1.9985   -2.0360 H   0  0  0  0  0  0  0  0  0  0  0  0
    9.6878   -5.7403   -2.0228 H   0  0  0  0  0  0  0  0  0  0  0  0
   10.1510   -4.2176   -1.2063 H   0  0  0  0  0  0  0  0  0  0  0  0
   10.7672   -4.5751   -2.8379 H   0  0  0  0  0  0  0  0  0  0  0  0
    5.6123   -2.8510    0.6573 H   0  0  0  0  0  0  0  0  0  0  0  0
    7.2765   -3.3837    0.4576 H   0  0  0  0  0  0  0  0  0  0  0  0
    4.8538   -6.4525    3.8923 H   0  0  0  0  0  0  0  0  0  0  0  0
    2.0830   -5.4679    3.6179 H   0  0  0  0  0  0  0  0  0  0  0  0
    3.0712   -5.2777    4.9320 H   0  0  0  0  0  0  0  0  0  0  0  0
    4.7647   -6.6428   -0.7309 H   0  0  0  0  0  0  0  0  0  0  0  0
    6.1385   -6.6967    0.3702 H   0  0  0  0  0  0  0  0  0  0  0  0
  1  2  1  0
  1 27  1  0
  1 28  1  0
  1 29  1  0
  2  3  2  0
  2 26  1  0
  3  4  1  0
  4  5  2  0
  5  6  1  0
  5 26  1  0
  6  7  1  0
  7  8  1  0
  7 30  1  0
  7 31  1  0
  8  9  1  6
  8 16  1  0
  8 25  1  0
  9 10  2  0
  9 11  1  0
 12 11  1  1
 12 13  1  0
 12 14  1  0
 12 15  1  0
 13 32  1  0
 13 33  1  0
 13 34  1  0
 14 35  1  0
 14 36  1  0
 14 37  1  0
 15 38  1  0
 15 39  1  0
 15 40  1  0
 16 17  1  0
 16 41  1  0
 16 42  1  0
 17 18  1  0
 18 19  1  6
 18 20  1  0
 18 24  1  0
 20 21  1  0
 20 22  1  0
 20 43  1  1
 21 44  1  0
 21 45  1  0
 22 23  2  0
 22 24  1  0
 24 25  1  0
 25 46  1  0
 25 47  1  0
M  END

