
     RDKit          3D

 59 61  0  0  0  0  0  0  0  0999 V2000
   10.8592   -4.8023    2.3651 C   0  0  0  0  0  0  0  0  0  0  0  0
    9.7135   -4.4187    1.6426 O   0  0  0  0  0  0  0  0  0  0  0  0
    9.6075   -4.7422    0.3269 C   0  0  0  0  0  0  0  0  0  0  0  0
    8.4418   -4.3032   -0.3185 C   0  0  0  0  0  0  0  0  0  0  0  0
    8.2344   -4.5961   -1.6706 C   0  0  0  0  0  0  0  0  0  0  0  0
    7.0200   -4.0723   -2.4096 C   0  0  0  0  0  0  0  0  0  0  0  0
    7.2513   -2.7144   -3.1221 C   0  0  0  0  0  0  0  0  0  0  0  0
    8.4296   -2.7160   -4.0937 C   0  0  0  0  0  0  0  0  0  0  0  0
    9.4949   -2.1913   -3.8163 O   0  0  0  0  0  0  0  0  0  0  0  0
    8.2190   -3.3749   -5.2809 N   0  0  0  0  0  0  0  0  0  0  0  0
    9.2918   -3.5980   -6.2289 C   0  0  0  0  0  0  0  0  0  0  0  0
    9.5850   -5.1063   -6.4337 C   0  0  1  0  0  0  0  0  0  0  0  0
    8.3700   -5.7722   -7.0774 C   0  0  0  0  0  0  0  0  0  0  0  0
    8.0982   -5.5886   -8.4440 C   0  0  0  0  0  0  0  0  0  0  0  0
    6.9554   -6.1412   -9.0248 C   0  0  0  0  0  0  0  0  0  0  0  0
    6.0602   -6.8884   -8.2497 C   0  0  0  0  0  0  0  0  0  0  0  0
    6.3222   -7.0834   -6.8919 C   0  0  0  0  0  0  0  0  0  0  0  0
    7.4711   -6.5305   -6.3125 C   0  0  0  0  0  0  0  0  0  0  0  0
   10.7862   -5.3324   -7.2515 N   0  0  0  0  0  0  0  0  0  0  0  0
   11.9993   -4.5798   -6.9067 C   0  0  0  0  0  0  0  0  0  0  0  0
   12.7007   -5.1175   -5.6559 C   0  0  0  0  0  0  0  0  0  0  0  0
   13.0154   -6.4953   -5.8022 O   0  0  0  0  0  0  0  0  0  0  0  0
   11.8711   -7.2767   -6.1127 C   0  0  0  0  0  0  0  0  0  0  0  0
   11.1558   -6.7514   -7.3626 C   0  0  0  0  0  0  0  0  0  0  0  0
    9.1962   -5.3369   -2.3645 C   0  0  0  0  0  0  0  0  0  0  0  0
   10.3721   -5.7526   -1.7315 C   0  0  0  0  0  0  0  0  0  0  0  0
   11.2584   -6.4208   -2.5194 O   0  0  0  0  0  0  0  0  0  0  0  0
   12.5281   -6.7771   -2.0172 C   0  0  0  0  0  0  0  0  0  0  0  0
   10.5877   -5.4671   -0.3740 C   0  0  0  0  0  0  0  0  0  0  0  0
   10.7229   -4.4307    3.3898 H   0  0  0  0  0  0  0  0  0  0  0  0
   11.7805   -4.3582    1.9459 H   0  0  0  0  0  0  0  0  0  0  0  0
   10.9791   -5.9008    2.3988 H   0  0  0  0  0  0  0  0  0  0  0  0
    7.7148   -3.7304    0.2607 H   0  0  0  0  0  0  0  0  0  0  0  0
    6.1810   -3.9456   -1.7067 H   0  0  0  0  0  0  0  0  0  0  0  0
    6.6936   -4.8211   -3.1507 H   0  0  0  0  0  0  0  0  0  0  0  0
    7.4724   -1.9364   -2.3786 H   0  0  0  0  0  0  0  0  0  0  0  0
    6.3255   -2.4275   -3.6510 H   0  0  0  0  0  0  0  0  0  0  0  0
    7.3107   -3.7835   -5.4690 H   0  0  0  0  0  0  0  0  0  0  0  0
   10.1568   -3.0816   -5.7967 H   0  0  0  0  0  0  0  0  0  0  0  0
    9.0697   -3.1312   -7.2045 H   0  0  0  0  0  0  0  0  0  0  0  0
    9.6888   -5.5313   -5.4157 H   0  0  0  0  0  0  0  0  0  0  0  0
    8.8089   -5.0206   -9.0490 H   0  0  0  0  0  0  0  0  0  0  0  0
    6.7611   -5.9911  -10.0903 H   0  0  0  0  0  0  0  0  0  0  0  0
    5.1663   -7.3219   -8.7056 H   0  0  0  0  0  0  0  0  0  0  0  0
    5.6365   -7.6752   -6.2797 H   0  0  0  0  0  0  0  0  0  0  0  0
    7.6786   -6.7044   -5.2528 H   0  0  0  0  0  0  0  0  0  0  0  0
   11.7854   -3.5081   -6.7967 H   0  0  0  0  0  0  0  0  0  0  0  0
   12.6933   -4.6767   -7.7604 H   0  0  0  0  0  0  0  0  0  0  0  0
   12.0709   -4.9631   -4.7575 H   0  0  0  0  0  0  0  0  0  0  0  0
   13.6547   -4.5910   -5.4929 H   0  0  0  0  0  0  0  0  0  0  0  0
   11.1833   -7.2960   -5.2440 H   0  0  0  0  0  0  0  0  0  0  0  0
   12.2264   -8.3061   -6.2801 H   0  0  0  0  0  0  0  0  0  0  0  0
   10.2620   -7.3582   -7.5713 H   0  0  0  0  0  0  0  0  0  0  0  0
   11.8348   -6.8582   -8.2271 H   0  0  0  0  0  0  0  0  0  0  0  0
    9.0663   -5.5789   -3.4183 H   0  0  0  0  0  0  0  0  0  0  0  0
   13.0927   -7.1773   -2.8700 H   0  0  0  0  0  0  0  0  0  0  0  0
   12.4566   -7.5476   -1.2279 H   0  0  0  0  0  0  0  0  0  0  0  0
   13.0675   -5.9018   -1.6135 H   0  0  0  0  0  0  0  0  0  0  0  0
   11.4954   -5.7990    0.1236 H   0  0  0  0  0  0  0  0  0  0  0  0
  1  2  1  0
  1 30  1  0
  1 31  1  0
  1 32  1  0
  2  3  1  0
  3  4  2  0
  3 29  1  0
  4  5  1  0
  4 33  1  0
  5  6  1  0
  5 25  2  0
  6  7  1  0
  6 34  1  0
  6 35  1  0
  7  8  1  0
  7 36  1  0
  7 37  1  0
  8  9  2  0
  8 10  1  0
 10 11  1  0
 10 38  1  0
 11 12  1  0
 11 39  1  0
 11 40  1  0
 12 13  1  0
 12 19  1  0
 12 41  1  1
 13 14  2  0
 13 18  1  0
 14 15  1  0
 14 42  1  0
 15 16  2  0
 15 43  1  0
 16 17  1  0
 16 44  1  0
 17 18  2  0
 17 45  1  0
 18 46  1  0
 19 20  1  0
 19 24  1  0
 20 21  1  0
 20 47  1  0
 20 48  1  0
 21 22  1  0
 21 49  1  0
 21 50  1  0
 22 23  1  0
 23 24  1  0
 23 51  1  0
 23 52  1  0
 24 53  1  0
 24 54  1  0
 25 26  1  0
 25 55  1  0
 26 27  1  0
 26 29  2  0
 27 28  1  0
 28 56  1  0
 28 57  1  0
 28 58  1  0
 29 59  1  0
M  END

