
     RDKit          3D

 50 52  0  0  0  0  0  0  0  0999 V2000
    3.5896   -1.0149    0.4478 C   0  0  0  0  0  0  0  0  0  0  0  0
    2.4357   -0.4414   -0.3887 C   0  0  1  0  0  0  0  0  0  0  0  0
    1.4758   -1.5745   -0.7640 C   0  0  0  0  0  0  0  0  0  0  0  0
    1.7672    0.6411    0.3608 N   0  0  0  0  0  0  0  0  0  0  0  0
    2.5312    1.8783    0.4763 C   0  0  0  0  0  0  0  0  0  0  0  0
    2.4459    2.7773   -0.7656 C   0  0  0  0  0  0  0  0  0  0  0  0
    1.0558    3.0586   -1.1295 N   0  0  0  0  0  0  0  0  0  0  0  0
    0.7837    4.1340   -1.9872 C   0  0  0  0  0  0  0  0  0  0  0  0
   -0.2165    4.0665   -2.9846 C   0  0  0  0  0  0  0  0  0  0  0  0
   -0.5008    5.1510   -3.8139 C   0  0  0  0  0  0  0  0  0  0  0  0
    0.1917    6.3604   -3.6731 C   0  0  0  0  0  0  0  0  0  0  0  0
   -0.0734    7.4588   -4.5347 N   0  0  0  0  0  0  0  0  0  0  0  0
   -1.5756    8.2338   -4.6338 S   0  0  1  0  0  0  0  0  0  0  0  0
   -1.3638    9.2982   -5.6141 O   0  0  0  0  0  0  0  0  0  0  0  0
   -2.5868    7.1914   -4.8025 O   0  0  0  0  0  0  0  0  0  0  0  0
   -1.8639    9.0083   -3.0359 C   0  0  0  0  0  0  0  0  0  0  0  0
   -1.4461   10.3290   -2.8387 C   0  0  0  0  0  0  0  0  0  0  0  0
   -1.6452   10.9224   -1.5901 C   0  0  0  0  0  0  0  0  0  0  0  0
   -2.2552   10.2002   -0.5581 C   0  0  0  0  0  0  0  0  0  0  0  0
   -2.6765    8.8837   -0.7727 C   0  0  0  0  0  0  0  0  0  0  0  0
   -2.4867    8.2787   -2.0180 C   0  0  0  0  0  0  0  0  0  0  0  0
    1.1853    6.4452   -2.6854 C   0  0  0  0  0  0  0  0  0  0  0  0
    1.4861    5.3566   -1.8724 C   0  0  0  0  0  0  0  0  0  0  0  0
    0.2287    1.8614   -1.2177 C   0  0  0  0  0  0  0  0  0  0  0  0
    0.3908    0.9911    0.0381 C   0  0  0  0  0  0  0  0  0  0  0  0
    4.1242   -1.7961   -0.1156 H   0  0  0  0  0  0  0  0  0  0  0  0
    3.1977   -1.4560    1.3783 H   0  0  0  0  0  0  0  0  0  0  0  0
    4.3303   -0.2504    0.7254 H   0  0  0  0  0  0  0  0  0  0  0  0
    2.8703   -0.0596   -1.3400 H   0  0  0  0  0  0  0  0  0  0  0  0
    0.9626   -1.9677    0.1291 H   0  0  0  0  0  0  0  0  0  0  0  0
    2.0441   -2.4011   -1.2165 H   0  0  0  0  0  0  0  0  0  0  0  0
    0.7138   -1.2667   -1.4953 H   0  0  0  0  0  0  0  0  0  0  0  0
    3.5879    1.6583    0.6849 H   0  0  0  0  0  0  0  0  0  0  0  0
    2.1438    2.4451    1.3423 H   0  0  0  0  0  0  0  0  0  0  0  0
    2.9778    2.3009   -1.6180 H   0  0  0  0  0  0  0  0  0  0  0  0
    2.9756    3.7140   -0.5510 H   0  0  0  0  0  0  0  0  0  0  0  0
   -0.7717    3.1438   -3.1471 H   0  0  0  0  0  0  0  0  0  0  0  0
   -1.2643    5.0646   -4.5874 H   0  0  0  0  0  0  0  0  0  0  0  0
    0.6749    8.1399   -4.6404 H   0  0  0  0  0  0  0  0  0  0  0  0
   -0.9920   10.8802   -3.6642 H   0  0  0  0  0  0  0  0  0  0  0  0
   -1.3310   11.9560   -1.4249 H   0  0  0  0  0  0  0  0  0  0  0  0
   -2.4103   10.6694    0.4167 H   0  0  0  0  0  0  0  0  0  0  0  0
   -3.1627    8.3257    0.0312 H   0  0  0  0  0  0  0  0  0  0  0  0
   -2.8284    7.2608   -2.2110 H   0  0  0  0  0  0  0  0  0  0  0  0
    1.7327    7.3822   -2.5477 H   0  0  0  0  0  0  0  0  0  0  0  0
    2.2573    5.4780   -1.1114 H   0  0  0  0  0  0  0  0  0  0  0  0
    0.4650    1.2684   -2.1294 H   0  0  0  0  0  0  0  0  0  0  0  0
   -0.8272    2.1608   -1.2945 H   0  0  0  0  0  0  0  0  0  0  0  0
   -0.2298    0.0912   -0.0597 H   0  0  0  0  0  0  0  0  0  0  0  0
   -0.0140    1.5604    0.8945 H   0  0  0  0  0  0  0  0  0  0  0  0
  1  2  1  0
  1 26  1  0
  1 27  1  0
  1 28  1  0
  2  3  1  0
  2  4  1  0
  2 29  1  6
  3 30  1  0
  3 31  1  0
  3 32  1  0
  4  5  1  0
  4 25  1  0
  5  6  1  0
  5 33  1  0
  5 34  1  0
  6  7  1  0
  6 35  1  0
  6 36  1  0
  7  8  1  0
  7 24  1  0
  8  9  2  0
  8 23  1  0
  9 10  1  0
  9 37  1  0
 10 11  2  0
 10 38  1  0
 11 12  1  0
 11 22  1  0
 13 12  1  1
 12 39  1  0
 13 14  2  0
 13 15  2  0
 13 16  1  0
 16 17  2  0
 16 21  1  0
 17 18  1  0
 17 40  1  0
 18 19  2  0
 18 41  1  0
 19 20  1  0
 19 42  1  0
 20 21  2  0
 20 43  1  0
 21 44  1  0
 22 23  2  0
 22 45  1  0
 23 46  1  0
 24 25  1  0
 24 47  1  0
 24 48  1  0
 25 49  1  0
 25 50  1  0
M  END

