
     RDKit          3D

 52 55  0  0  0  0  0  0  0  0999 V2000
   -0.4218    0.9608    1.3708 C   0  0  0  0  0  0  0  0  0  0  0  0
    0.5217   -0.0617    1.1205 O   0  0  0  0  0  0  0  0  0  0  0  0
    1.7749    0.0688    1.5953 C   0  0  0  0  0  0  0  0  0  0  0  0
    2.2537    1.1627    2.3155 C   0  0  0  0  0  0  0  0  0  0  0  0
    3.5837    1.2075    2.7780 C   0  0  0  0  0  0  0  0  0  0  0  0
    4.0810    2.4262    3.5618 C   0  0  1  0  0  0  0  0  0  0  0  0
    4.0045    3.7474    2.7965 C   0  0  0  0  0  0  0  0  0  0  0  0
    4.6121    3.9215    1.5711 C   0  0  0  0  0  0  0  0  0  0  0  0
    5.1811    2.8821    0.9349 O   0  0  0  0  0  0  0  0  0  0  0  0
    4.7378    5.1685    0.7906 C   0  0  0  0  0  0  0  0  0  0  0  0
    4.8521    6.4343    1.3925 C   0  0  0  0  0  0  0  0  0  0  0  0
    5.0160    7.5703    0.6035 C   0  0  0  0  0  0  0  0  0  0  0  0
    5.0565    7.4382   -0.7810 C   0  0  0  0  0  0  0  0  0  0  0  0
    5.2066    8.5390   -1.5330 F   0  0  0  0  0  0  0  0  0  0  0  0
    4.9541    6.2000   -1.4305 C   0  0  0  0  0  0  0  0  0  0  0  0
    5.0081    6.1224   -2.9336 C   0  0  0  0  0  0  0  0  0  0  0  0
    4.8053    5.0754   -0.6161 C   0  0  0  0  0  0  0  0  0  0  0  0
    3.1384    4.6632    3.5314 C   0  0  0  0  0  0  0  0  0  0  0  0
    2.7862    5.8040    3.3077 O   0  0  0  0  0  0  0  0  0  0  0  0
    2.6597    3.9045    4.7830 C   0  0  0  0  0  0  0  0  0  0  0  0
    1.9030    4.3488    5.6157 O   0  0  0  0  0  0  0  0  0  0  0  0
    3.2796    2.6640    4.7745 N   0  0  0  0  0  0  0  0  0  0  0  0
    3.2065    1.7116    5.8250 C   0  0  0  0  0  0  0  0  0  0  0  0
    2.1077    1.6902    6.7062 C   0  0  0  0  0  0  0  0  0  0  0  0
    2.0583    0.7508    7.7371 C   0  0  0  0  0  0  0  0  0  0  0  0
    3.0850   -0.1809    7.9132 C   0  0  0  0  0  0  0  0  0  0  0  0
    4.1758   -0.1608    7.0414 C   0  0  0  0  0  0  0  0  0  0  0  0
    4.2409    0.7756    6.0081 C   0  0  0  0  0  0  0  0  0  0  0  0
    4.4384    0.1384    2.5057 C   0  0  0  0  0  0  0  0  0  0  0  0
    3.9597   -0.9546    1.7688 C   0  0  0  0  0  0  0  0  0  0  0  0
    5.0158   -2.3121    1.4119 Cl  0  0  0  0  0  0  0  0  0  0  0  0
    2.6435   -1.0236    1.3063 C   0  0  0  0  0  0  0  0  0  0  0  0
    2.1514   -2.0570    0.6051 O   0  0  0  0  0  0  0  0  0  0  0  0
   -1.3610    0.6351    0.9055 H   0  0  0  0  0  0  0  0  0  0  0  0
   -0.1113    1.9209    0.9220 H   0  0  0  0  0  0  0  0  0  0  0  0
   -0.5863    1.1068    2.4528 H   0  0  0  0  0  0  0  0  0  0  0  0
    1.5915    2.0004    2.5327 H   0  0  0  0  0  0  0  0  0  0  0  0
    5.1319    2.2353    3.8450 H   0  0  0  0  0  0  0  0  0  0  0  0
    4.8982    2.0335    1.3247 H   0  0  0  0  0  0  0  0  0  0  0  0
    4.8157    6.5376    2.4738 H   0  0  0  0  0  0  0  0  0  0  0  0
    5.1116    8.5628    1.0472 H   0  0  0  0  0  0  0  0  0  0  0  0
    4.1878    6.6977   -3.3934 H   0  0  0  0  0  0  0  0  0  0  0  0
    4.9322    5.0811   -3.2771 H   0  0  0  0  0  0  0  0  0  0  0  0
    5.9479    6.5468   -3.3227 H   0  0  0  0  0  0  0  0  0  0  0  0
    4.7350    4.0922   -1.0834 H   0  0  0  0  0  0  0  0  0  0  0  0
    1.3127    2.4222    6.5894 H   0  0  0  0  0  0  0  0  0  0  0  0
    1.1982    0.7510    8.4118 H   0  0  0  0  0  0  0  0  0  0  0  0
    3.0364   -0.9140    8.7218 H   0  0  0  0  0  0  0  0  0  0  0  0
    4.9917   -0.8776    7.1643 H   0  0  0  0  0  0  0  0  0  0  0  0
    5.1110    0.7747    5.3528 H   0  0  0  0  0  0  0  0  0  0  0  0
    5.4693    0.1259    2.8653 H   0  0  0  0  0  0  0  0  0  0  0  0
    2.8565   -2.7169    0.4989 H   0  0  0  0  0  0  0  0  0  0  0  0
  1  2  1  0
  1 34  1  0
  1 35  1  0
  1 36  1  0
  2  3  1  0
  3  4  2  0
  3 32  1  0
  4  5  1  0
  4 37  1  0
  5  6  1  0
  5 29  2  0
  6  7  1  0
  6 22  1  0
  6 38  1  1
  7  8  2  0
  7 18  1  0
  8  9  1  0
  8 10  1  0
  9 39  1  0
 10 11  2  0
 10 17  1  0
 11 12  1  0
 11 40  1  0
 12 13  2  0
 12 41  1  0
 13 14  1  0
 13 15  1  0
 15 16  1  0
 15 17  2  0
 16 42  1  0
 16 43  1  0
 16 44  1  0
 17 45  1  0
 18 19  2  0
 18 20  1  0
 20 21  2  0
 20 22  1  0
 22 23  1  0
 23 24  2  0
 23 28  1  0
 24 25  1  0
 24 46  1  0
 25 26  2  0
 25 47  1  0
 26 27  1  0
 26 48  1  0
 27 28  2  0
 27 49  1  0
 28 50  1  0
 29 30  1  0
 29 51  1  0
 30 31  1  0
 30 32  2  0
 32 33  1  0
 33 52  1  0
M  END

