
     RDKit          3D

 64 67  0  0  0  0  0  0  0  0999 V2000
    2.1272    3.2586    1.3164 C   0  0  0  0  0  0  0  0  0  0  0  0
    3.4378    2.5248    1.0284 C   0  0  0  0  0  0  0  0  0  0  0  0
    3.4802    1.8905   -0.3646 C   0  0  0  0  0  0  0  0  0  0  0  0
    4.7849    1.1622   -0.6480 C   0  0  0  0  0  0  0  0  0  0  0  0
    4.7154    0.6171   -1.9545 O   0  0  0  0  0  0  0  0  0  0  0  0
    5.7652   -0.0852   -2.4506 C   0  0  0  0  0  0  0  0  0  0  0  0
    6.9604   -0.3321   -1.7608 C   0  0  0  0  0  0  0  0  0  0  0  0
    7.9824   -1.0687   -2.3748 C   0  0  0  0  0  0  0  0  0  0  0  0
    7.8493   -1.5791   -3.6712 C   0  0  0  0  0  0  0  0  0  0  0  0
    8.9215   -2.4342   -4.3523 C   0  0  2  0  0  0  0  0  0  0  0  0
    8.6212   -3.9455   -4.2119 C   0  0  0  0  0  0  0  0  0  0  0  0
    9.0607   -4.4803   -2.8434 C   0  0  1  0  0  0  0  0  0  0  0  0
    8.6197   -5.9276   -2.5663 C   0  0  0  0  0  0  0  0  0  0  0  0
    9.4285   -6.9664   -3.3393 C   0  0  0  0  0  0  0  0  0  0  0  0
   10.8782   -6.7636   -3.1268 N   0  0  0  0  0  0  0  0  0  0  0  0
   11.6966   -7.8837   -3.3120 C   0  0  0  0  0  0  0  0  0  0  0  0
   12.6432   -8.1111   -4.2545 C   0  0  0  0  0  0  0  0  0  0  0  0
   12.8358   -7.3707   -5.5257 C   0  0  0  0  0  0  0  0  0  0  0  0
   12.0083   -6.6753   -6.0631 O   0  0  0  0  0  0  0  0  0  0  0  0
   14.0373   -7.5665   -6.1190 O   0  0  0  0  0  0  0  0  0  0  0  0
   11.5793   -8.9382   -2.2099 C   0  0  0  0  0  0  0  0  0  0  0  0
   12.0148  -10.0551   -2.3025 O   0  0  0  0  0  0  0  0  0  0  0  0
   10.9762   -8.4830   -1.1028 O   0  0  0  0  0  0  0  0  0  0  0  0
   11.3358   -5.4217   -3.5069 C   0  0  0  0  0  0  0  0  0  0  0  0
   10.5902   -4.3424   -2.6884 C   0  0  1  0  0  0  0  0  0  0  0  0
   11.0931   -2.9601   -3.0810 C   0  0  0  0  0  0  0  0  0  0  0  0
   12.3708   -2.5528   -2.6539 C   0  0  0  0  0  0  0  0  0  0  0  0
   12.9056   -1.3218   -3.0260 C   0  0  0  0  0  0  0  0  0  0  0  0
   12.1586   -0.4670   -3.8447 C   0  0  0  0  0  0  0  0  0  0  0  0
   10.8879   -0.8538   -4.2634 C   0  0  0  0  0  0  0  0  0  0  0  0
   10.3350   -2.0928   -3.8925 C   0  0  0  0  0  0  0  0  0  0  0  0
    6.6433   -1.3136   -4.3487 C   0  0  0  0  0  0  0  0  0  0  0  0
    5.6185   -0.5837   -3.7578 C   0  0  0  0  0  0  0  0  0  0  0  0
    2.1272    3.7034    2.3240 H   0  0  0  0  0  0  0  0  0  0  0  0
    1.2638    2.5756    1.2530 H   0  0  0  0  0  0  0  0  0  0  0  0
    1.9569    4.0726    0.5923 H   0  0  0  0  0  0  0  0  0  0  0  0
    3.5963    1.7424    1.7930 H   0  0  0  0  0  0  0  0  0  0  0  0
    4.2839    3.2276    1.1376 H   0  0  0  0  0  0  0  0  0  0  0  0
    3.3357    2.6638   -1.1390 H   0  0  0  0  0  0  0  0  0  0  0  0
    2.6474    1.1755   -0.4823 H   0  0  0  0  0  0  0  0  0  0  0  0
    4.9485    0.3560    0.0935 H   0  0  0  0  0  0  0  0  0  0  0  0
    5.6429    1.8580   -0.5702 H   0  0  0  0  0  0  0  0  0  0  0  0
    7.1143    0.0468   -0.7503 H   0  0  0  0  0  0  0  0  0  0  0  0
    8.9110   -1.2303   -1.8226 H   0  0  0  0  0  0  0  0  0  0  0  0
    8.8653   -2.1946   -5.4276 H   0  0  0  0  0  0  0  0  0  0  0  0
    9.1351   -4.4883   -5.0224 H   0  0  0  0  0  0  0  0  0  0  0  0
    7.5426   -4.1165   -4.3567 H   0  0  0  0  0  0  0  0  0  0  0  0
    8.5861   -3.8432   -2.0779 H   0  0  0  0  0  0  0  0  0  0  0  0
    7.5505   -6.0518   -2.8047 H   0  0  0  0  0  0  0  0  0  0  0  0
    8.7256   -6.1355   -1.4864 H   0  0  0  0  0  0  0  0  0  0  0  0
    9.2198   -6.9141   -4.4242 H   0  0  0  0  0  0  0  0  0  0  0  0
    9.1571   -7.9818   -3.0137 H   0  0  0  0  0  0  0  0  0  0  0  0
   13.2581   -9.0008   -4.0869 H   0  0  0  0  0  0  0  0  0  0  0  0
   14.6032   -8.1201   -5.5627 H   0  0  0  0  0  0  0  0  0  0  0  0
   10.8005   -7.5332   -1.2650 H   0  0  0  0  0  0  0  0  0  0  0  0
   11.2065   -5.2476   -4.5865 H   0  0  0  0  0  0  0  0  0  0  0  0
   12.4151   -5.3623   -3.3038 H   0  0  0  0  0  0  0  0  0  0  0  0
   10.8452   -4.5115   -1.6264 H   0  0  0  0  0  0  0  0  0  0  0  0
   12.9533   -3.2201   -2.0109 H   0  0  0  0  0  0  0  0  0  0  0  0
   13.8999   -1.0281   -2.6800 H   0  0  0  0  0  0  0  0  0  0  0  0
   12.5656    0.5001   -4.1507 H   0  0  0  0  0  0  0  0  0  0  0  0
   10.2966   -0.1800   -4.8902 H   0  0  0  0  0  0  0  0  0  0  0  0
    6.5068   -1.6865   -5.3686 H   0  0  0  0  0  0  0  0  0  0  0  0
    4.6881   -0.3761   -4.2906 H   0  0  0  0  0  0  0  0  0  0  0  0
  1  2  1  0
  1 34  1  0
  1 35  1  0
  1 36  1  0
  2  3  1  0
  2 37  1  0
  2 38  1  0
  3  4  1  0
  3 39  1  0
  3 40  1  0
  4  5  1  0
  4 41  1  0
  4 42  1  0
  5  6  1  0
  6  7  2  0
  6 33  1  0
  7  8  1  0
  7 43  1  0
  8  9  2  0
  8 44  1  0
  9 10  1  0
  9 32  1  0
 10 11  1  0
 10 31  1  0
 10 45  1  6
 11 12  1  0
 11 46  1  0
 11 47  1  0
 12 13  1  0
 12 25  1  0
 12 48  1  1
 13 14  1  0
 13 49  1  0
 13 50  1  0
 14 15  1  0
 14 51  1  0
 14 52  1  0
 15 16  1  0
 15 24  1  0
 16 17  2  0
 16 21  1  0
 17 18  1  0
 17 53  1  0
 18 19  2  0
 18 20  1  0
 20 54  1  0
 21 22  2  0
 21 23  1  0
 23 55  1  0
 24 25  1  0
 24 56  1  0
 24 57  1  0
 25 26  1  0
 25 58  1  1
 26 27  2  0
 26 31  1  0
 27 28  1  0
 27 59  1  0
 28 29  2  0
 28 60  1  0
 29 30  1  0
 29 61  1  0
 30 31  2  0
 30 62  1  0
 32 33  2  0
 32 63  1  0
 33 64  1  0
M  END

