
     RDKit          3D

 38 39  0  0  0  0  0  0  0  0999 V2000
    0.7496   -1.8453   -0.4773 C   0  0  0  0  0  0  0  0  0  0  0  0
    2.2592   -2.0790   -0.4169 C   0  0  0  0  0  0  0  0  0  0  0  0
    3.0344   -0.8864    0.1741 C   0  0  0  0  0  0  0  0  0  0  0  0
    4.5285   -1.1114    0.2398 C   0  0  0  0  0  0  0  0  0  0  0  0
    5.3656   -0.7415   -0.8225 C   0  0  0  0  0  0  0  0  0  0  0  0
    6.7423   -0.9844   -0.7753 C   0  0  0  0  0  0  0  0  0  0  0  0
    7.3214   -1.6138    0.3328 C   0  0  0  0  0  0  0  0  0  0  0  0
    8.8199   -1.8842    0.3999 C   0  0  1  0  0  0  0  0  0  0  0  0
    9.3721   -1.4259    1.6221 O   0  0  0  0  0  0  0  0  0  0  0  0
    9.1600   -3.3642    0.2499 C   0  0  0  0  0  0  0  0  0  0  0  0
    9.9289   -4.0371    1.2056 C   0  0  0  0  0  0  0  0  0  0  0  0
   10.2458   -5.3897    1.0340 C   0  0  0  0  0  0  0  0  0  0  0  0
    9.8192   -6.1148   -0.0852 C   0  0  0  0  0  0  0  0  0  0  0  0
   10.1428   -7.5693   -0.3017 C   0  0  0  0  0  0  0  0  0  0  0  0
    9.0547   -5.4093   -1.0243 C   0  0  0  0  0  0  0  0  0  0  0  0
    8.6226   -6.0688   -2.1179 F   0  0  0  0  0  0  0  0  0  0  0  0
    8.7208   -4.0698   -0.8806 C   0  0  0  0  0  0  0  0  0  0  0  0
    6.4900   -1.9819    1.4026 C   0  0  0  0  0  0  0  0  0  0  0  0
    5.1193   -1.7324    1.3548 C   0  0  0  0  0  0  0  0  0  0  0  0
    0.2248   -2.7147   -0.9040 H   0  0  0  0  0  0  0  0  0  0  0  0
    0.5029   -0.9690   -1.1003 H   0  0  0  0  0  0  0  0  0  0  0  0
    0.3305   -1.6632    0.5266 H   0  0  0  0  0  0  0  0  0  0  0  0
    2.6474   -2.2924   -1.4283 H   0  0  0  0  0  0  0  0  0  0  0  0
    2.4760   -2.9802    0.1830 H   0  0  0  0  0  0  0  0  0  0  0  0
    2.6487   -0.6762    1.1869 H   0  0  0  0  0  0  0  0  0  0  0  0
    2.8231    0.0127   -0.4306 H   0  0  0  0  0  0  0  0  0  0  0  0
    4.9369   -0.2445   -1.6979 H   0  0  0  0  0  0  0  0  0  0  0  0
    7.3749   -0.6715   -1.6117 H   0  0  0  0  0  0  0  0  0  0  0  0
    9.2916   -1.3549   -0.4540 H   0  0  0  0  0  0  0  0  0  0  0  0
    9.0707   -0.5187    1.7586 H   0  0  0  0  0  0  0  0  0  0  0  0
   10.2788   -3.4942    2.0829 H   0  0  0  0  0  0  0  0  0  0  0  0
   10.8463   -5.8999    1.7927 H   0  0  0  0  0  0  0  0  0  0  0  0
   10.7477   -7.9658    0.5264 H   0  0  0  0  0  0  0  0  0  0  0  0
   10.7021   -7.7213   -1.2397 H   0  0  0  0  0  0  0  0  0  0  0  0
    9.2265   -8.1774   -0.3803 H   0  0  0  0  0  0  0  0  0  0  0  0
    8.1115   -3.5959   -1.6531 H   0  0  0  0  0  0  0  0  0  0  0  0
    6.9320   -2.4603    2.2801 H   0  0  0  0  0  0  0  0  0  0  0  0
    4.4902   -2.0232    2.2017 H   0  0  0  0  0  0  0  0  0  0  0  0
  1  2  1  0
  1 20  1  0
  1 21  1  0
  1 22  1  0
  2  3  1  0
  2 23  1  0
  2 24  1  0
  3  4  1  0
  3 25  1  0
  3 26  1  0
  4  5  2  0
  4 19  1  0
  5  6  1  0
  5 27  1  0
  6  7  2  0
  6 28  1  0
  7  8  1  0
  7 18  1  0
  8  9  1  0
  8 10  1  0
  8 29  1  6
  9 30  1  0
 10 11  2  0
 10 17  1  0
 11 12  1  0
 11 31  1  0
 12 13  2  0
 12 32  1  0
 13 14  1  0
 13 15  1  0
 14 33  1  0
 14 34  1  0
 14 35  1  0
 15 16  1  0
 15 17  2  0
 17 36  1  0
 18 19  2  0
 18 37  1  0
 19 38  1  0
M  END

