
     RDKit          3D

 39 42  0  0  0  0  0  0  0  0999 V2000
    1.5342    0.1171    1.3862 F   0  0  0  0  0  0  0  0  0  0  0  0
    2.8172    0.0139    1.0022 C   0  0  0  0  0  0  0  0  0  0  0  0
    3.5566    1.1535    0.7158 C   0  0  0  0  0  0  0  0  0  0  0  0
    4.8403    1.0816    0.3688 N   0  0  0  0  0  0  0  0  0  0  0  0
    5.4522   -0.1049    0.2622 C   0  0  0  0  0  0  0  0  0  0  0  0
    6.8076   -0.0741   -0.0651 N   0  0  0  0  0  0  0  0  0  0  0  0
    7.7998   -0.9239    0.6174 C   0  0  0  0  0  0  0  0  0  0  0  0
    9.1081   -0.2343    0.3284 C   0  0  0  0  0  0  0  0  0  0  0  0
   10.4071   -0.6568    0.6143 C   0  0  0  0  0  0  0  0  0  0  0  0
   11.4794    0.1618    0.2409 C   0  0  0  0  0  0  0  0  0  0  0  0
   11.2489    1.3812   -0.4093 C   0  0  0  0  0  0  0  0  0  0  0  0
    9.9439    1.8007   -0.6926 C   0  0  0  0  0  0  0  0  0  0  0  0
    8.8763    0.9830   -0.3178 C   0  0  0  0  0  0  0  0  0  0  0  0
    7.3989    1.2132   -0.4707 C   0  0  0  0  0  0  0  0  0  0  0  0
    4.7343   -1.3294    0.4314 C   0  0  0  0  0  0  0  0  0  0  0  0
    5.3278   -2.6827    0.0873 C   0  0  0  0  0  0  0  0  0  0  0  0
    4.3087   -3.6901   -0.1608 N   0  0  0  0  0  0  0  0  0  0  0  0
    4.8074   -5.0278   -0.3148 C   0  0  1  0  0  0  0  0  0  0  0  0
    4.1237   -5.9803   -1.2466 C   0  0  0  0  0  0  0  0  0  0  0  0
    5.5238   -5.5014   -1.5677 C   0  0  0  0  0  0  0  0  0  0  0  0
    3.4043   -1.2383    0.8438 C   0  0  0  0  0  0  0  0  0  0  0  0
    3.0901    2.1436    0.7757 H   0  0  0  0  0  0  0  0  0  0  0  0
    7.8088   -1.9578    0.2362 H   0  0  0  0  0  0  0  0  0  0  0  0
    7.6045   -0.9849    1.7083 H   0  0  0  0  0  0  0  0  0  0  0  0
   10.5899   -1.6103    1.1178 H   0  0  0  0  0  0  0  0  0  0  0  0
   12.5037   -0.1541    0.4548 H   0  0  0  0  0  0  0  0  0  0  0  0
   12.0954    2.0093   -0.6987 H   0  0  0  0  0  0  0  0  0  0  0  0
    9.7680    2.7534   -1.1998 H   0  0  0  0  0  0  0  0  0  0  0  0
    7.0996    1.4738   -1.5017 H   0  0  0  0  0  0  0  0  0  0  0  0
    7.0438    2.0394    0.1716 H   0  0  0  0  0  0  0  0  0  0  0  0
    5.9553   -3.0518    0.9191 H   0  0  0  0  0  0  0  0  0  0  0  0
    6.0204   -2.5469   -0.7703 H   0  0  0  0  0  0  0  0  0  0  0  0
    3.7267   -3.4228   -0.9534 H   0  0  0  0  0  0  0  0  0  0  0  0
    5.1703   -5.4506    0.6309 H   0  0  0  0  0  0  0  0  0  0  0  0
    3.3003   -5.5932   -1.8565 H   0  0  0  0  0  0  0  0  0  0  0  0
    3.9797   -7.0146   -0.9221 H   0  0  0  0  0  0  0  0  0  0  0  0
    5.6342   -4.7851   -2.3882 H   0  0  0  0  0  0  0  0  0  0  0  0
    6.3550   -6.2066   -1.4712 H   0  0  0  0  0  0  0  0  0  0  0  0
    2.8229   -2.1492    0.9956 H   0  0  0  0  0  0  0  0  0  0  0  0
  1  2  1  0
  2  3  2  0
  2 21  1  0
  3  4  1  0
  3 22  1  0
  4  5  2  0
  5  6  1  0
  5 15  1  0
  6  7  1  0
  6 14  1  0
  7  8  1  0
  7 23  1  0
  7 24  1  0
  8  9  1  0
  8 13  2  0
  9 10  2  0
  9 25  1  0
 10 11  1  0
 10 26  1  0
 11 12  2  0
 11 27  1  0
 12 13  1  0
 12 28  1  0
 13 14  1  0
 14 29  1  0
 14 30  1  0
 15 16  1  0
 15 21  2  0
 16 17  1  0
 16 31  1  0
 16 32  1  0
 17 18  1  0
 17 33  1  0
 18 19  1  0
 18 20  1  0
 18 34  1  1
 19 20  1  0
 19 35  1  0
 19 36  1  0
 20 37  1  0
 20 38  1  0
 21 39  1  0
M  END

