
     RDKit          3D

 43 45  0  0  0  0  0  0  0  0999 V2000
    1.5265   -0.7840    0.3238 O   0  0  0  0  0  0  0  0  0  0  0  0
    2.1540    0.2237    0.0365 C   0  0  0  0  0  0  0  0  0  0  0  0
    2.3433    0.6413   -1.2645 N   0  0  0  0  0  0  0  0  0  0  0  0
    1.8188   -0.0984   -2.3958 C   0  0  0  0  0  0  0  0  0  0  0  0
    2.8755   -0.9710   -3.1082 C   0  0  0  0  0  0  0  0  0  0  0  0
    2.3256   -1.7193   -4.3034 C   0  0  0  0  0  0  0  0  0  0  0  0
    1.9665   -3.0658   -4.1762 C   0  0  0  0  0  0  0  0  0  0  0  0
    1.3994   -3.7768   -5.2363 C   0  0  0  0  0  0  0  0  0  0  0  0
    1.1848   -3.1227   -6.4493 C   0  0  0  0  0  0  0  0  0  0  0  0
    1.5374   -1.7805   -6.6283 C   0  0  0  0  0  0  0  0  0  0  0  0
    2.1148   -1.0677   -5.5485 C   0  0  0  0  0  0  0  0  0  0  0  0
    2.4367    0.2832   -5.6917 N   0  0  0  0  0  0  0  0  0  0  0  0
    2.4589    0.9138   -7.0002 C   0  0  0  0  0  0  0  0  0  0  0  0
    1.2711    0.4298   -7.8272 C   0  0  0  0  0  0  0  0  0  0  0  0
    1.3147   -1.0944   -7.9646 C   0  0  0  0  0  0  0  0  0  0  0  0
    2.7247    1.0526    0.9881 N   0  0  0  0  0  0  0  0  0  0  0  0
    2.6932    0.7526    2.3918 C   0  0  1  0  0  0  0  0  0  0  0  0
    4.0156    0.5930    3.1910 C   0  0  0  0  0  0  0  0  0  0  0  0
    3.3144    1.2818    4.3902 C   0  0  0  0  0  0  0  0  0  0  0  0
    2.2573    1.8458    3.4042 C   0  0  0  0  0  0  0  0  0  0  0  0
    2.8397    1.5055   -1.4411 H   0  0  0  0  0  0  0  0  0  0  0  0
    1.3604    0.5978   -3.1181 H   0  0  0  0  0  0  0  0  0  0  0  0
    1.0214   -0.7455   -2.0069 H   0  0  0  0  0  0  0  0  0  0  0  0
    3.2751   -1.6892   -2.3759 H   0  0  0  0  0  0  0  0  0  0  0  0
    3.7357   -0.3340   -3.3953 H   0  0  0  0  0  0  0  0  0  0  0  0
    2.1332   -3.5632   -3.2163 H   0  0  0  0  0  0  0  0  0  0  0  0
    1.1236   -4.8268   -5.1139 H   0  0  0  0  0  0  0  0  0  0  0  0
    0.7333   -3.6626   -7.2876 H   0  0  0  0  0  0  0  0  0  0  0  0
    3.1143    0.6373   -5.0293 H   0  0  0  0  0  0  0  0  0  0  0  0
    3.3990    0.6968   -7.5525 H   0  0  0  0  0  0  0  0  0  0  0  0
    2.4133    2.0067   -6.8629 H   0  0  0  0  0  0  0  0  0  0  0  0
    1.2800    0.9141   -8.8166 H   0  0  0  0  0  0  0  0  0  0  0  0
    0.3398    0.7340   -7.3198 H   0  0  0  0  0  0  0  0  0  0  0  0
    2.1244   -1.3747   -8.6643 H   0  0  0  0  0  0  0  0  0  0  0  0
    0.3809   -1.4635   -8.4196 H   0  0  0  0  0  0  0  0  0  0  0  0
    3.3198    1.8144    0.6831 H   0  0  0  0  0  0  0  0  0  0  0  0
    2.0691   -0.1468    2.4860 H   0  0  0  0  0  0  0  0  0  0  0  0
    4.8106    1.2319    2.7696 H   0  0  0  0  0  0  0  0  0  0  0  0
    4.4200   -0.4230    3.3229 H   0  0  0  0  0  0  0  0  0  0  0  0
    3.9017    2.0058    4.9744 H   0  0  0  0  0  0  0  0  0  0  0  0
    2.8747    0.5488    5.0841 H   0  0  0  0  0  0  0  0  0  0  0  0
    2.5333    2.8521    3.0472 H   0  0  0  0  0  0  0  0  0  0  0  0
    1.2008    1.8627    3.7144 H   0  0  0  0  0  0  0  0  0  0  0  0
  1  2  2  0
  2  3  1  0
  2 16  1  0
  3  4  1  0
  3 21  1  0
  4  5  1  0
  4 22  1  0
  4 23  1  0
  5  6  1  0
  5 24  1  0
  5 25  1  0
  6  7  2  0
  6 11  1  0
  7  8  1  0
  7 26  1  0
  8  9  2  0
  8 27  1  0
  9 10  1  0
  9 28  1  0
 10 11  2  0
 10 15  1  0
 11 12  1  0
 12 13  1  0
 12 29  1  0
 13 14  1  0
 13 30  1  0
 13 31  1  0
 14 15  1  0
 14 32  1  0
 14 33  1  0
 15 34  1  0
 15 35  1  0
 16 17  1  0
 16 36  1  0
 17 18  1  0
 17 20  1  0
 17 37  1  6
 18 19  1  0
 18 38  1  0
 18 39  1  0
 19 20  1  0
 19 40  1  0
 19 41  1  0
 20 42  1  0
 20 43  1  0
M  END

