
     RDKit          3D

 48 52  0  0  0  0  0  0  0  0999 V2000
    5.4199   -2.4972    0.1238 O   0  0  0  0  0  0  0  0  0  0  0  0
    4.7669   -1.4687    0.0764 C   0  0  0  0  0  0  0  0  0  0  0  0
    3.7969   -1.2204   -0.8751 N   0  0  0  0  0  0  0  0  0  0  0  0
    3.3333   -2.0588   -1.8993 C   0  0  0  0  0  0  0  0  0  0  0  0
    3.7705   -3.3833   -2.0815 C   0  0  0  0  0  0  0  0  0  0  0  0
    3.2520   -4.1503   -3.1238 C   0  0  0  0  0  0  0  0  0  0  0  0
    2.2933   -3.6296   -4.0136 C   0  0  0  0  0  0  0  0  0  0  0  0
    1.6985   -4.3788   -5.1252 C   0  0  0  0  0  0  0  0  0  0  0  0
    0.6480   -3.9656   -5.8136 N   0  0  0  0  0  0  0  0  0  0  0  0
    0.3988   -4.9183   -6.7676 C   0  0  0  0  0  0  0  0  0  0  0  0
   -0.6003   -4.9790   -7.7570 C   0  0  0  0  0  0  0  0  0  0  0  0
   -0.6240   -6.0790   -8.6051 C   0  0  0  0  0  0  0  0  0  0  0  0
    0.3349   -7.1044   -8.4670 C   0  0  0  0  0  0  0  0  0  0  0  0
    0.2762   -8.2545   -9.3868 N   0  0  0  0  0  0  0  0  0  0  0  0
   -0.6134   -8.2696  -10.2235 O   0  0  0  0  0  0  0  0  0  0  0  0
    1.1239   -9.1261   -9.2585 O   0  0  0  0  0  0  0  0  0  0  0  0
    1.3417   -7.0895   -7.5010 C   0  0  0  0  0  0  0  0  0  0  0  0
    1.3425   -5.9757   -6.6685 C   0  0  0  0  0  0  0  0  0  0  0  0
    2.1572   -5.5924   -5.6233 N   0  0  0  0  0  0  0  0  0  0  0  0
    3.1987   -6.3507   -5.1613 O   0  0  0  0  0  0  0  0  0  0  0  0
    1.8552   -2.3034   -3.8160 C   0  0  0  0  0  0  0  0  0  0  0  0
    2.3656   -1.5348   -2.7816 C   0  0  0  0  0  0  0  0  0  0  0  0
    4.9893   -0.3619    1.0674 C   0  0  0  0  0  0  0  0  0  0  0  0
    6.1917   -0.3632    1.7986 C   0  0  0  0  0  0  0  0  0  0  0  0
    6.4350    0.6294    2.7350 C   0  0  0  0  0  0  0  0  0  0  0  0
    5.4372    1.6040    2.9218 C   0  0  0  0  0  0  0  0  0  0  0  0
    5.6232    2.6451    3.8506 N   0  0  0  0  0  0  0  0  0  0  0  0
    4.7396    3.6526    4.1492 C   0  0  0  0  0  0  0  0  0  0  0  0
    5.3484    4.4309    5.1076 C   0  0  0  0  0  0  0  0  0  0  0  0
    6.6095    3.8074    5.3268 C   0  0  0  0  0  0  0  0  0  0  0  0
    6.7659    2.7360    4.5682 N   0  0  0  0  0  0  0  0  0  0  0  0
    4.2817    1.6083    2.2625 N   0  0  0  0  0  0  0  0  0  0  0  0
    4.0654    0.6501    1.3638 C   0  0  0  0  0  0  0  0  0  0  0  0
    3.4023   -0.2878   -0.8809 H   0  0  0  0  0  0  0  0  0  0  0  0
    4.5124   -3.7981   -1.4041 H   0  0  0  0  0  0  0  0  0  0  0  0
    3.5908   -5.1796   -3.2302 H   0  0  0  0  0  0  0  0  0  0  0  0
   -1.3335   -4.1756   -7.8464 H   0  0  0  0  0  0  0  0  0  0  0  0
   -1.3741   -6.1787   -9.3887 H   0  0  0  0  0  0  0  0  0  0  0  0
    2.0578   -7.9055   -7.4232 H   0  0  0  0  0  0  0  0  0  0  0  0
    3.9875   -6.0540   -5.6496 H   0  0  0  0  0  0  0  0  0  0  0  0
    1.1033   -1.8963   -4.4932 H   0  0  0  0  0  0  0  0  0  0  0  0
    2.0113   -0.5081   -2.6488 H   0  0  0  0  0  0  0  0  0  0  0  0
    6.9166   -1.1579    1.6117 H   0  0  0  0  0  0  0  0  0  0  0  0
    7.3521    0.6784    3.3198 H   0  0  0  0  0  0  0  0  0  0  0  0
    3.7766    3.7076    3.6509 H   0  0  0  0  0  0  0  0  0  0  0  0
    4.9477    5.3214    5.5860 H   0  0  0  0  0  0  0  0  0  0  0  0
    7.4029    4.1073    6.0117 H   0  0  0  0  0  0  0  0  0  0  0  0
    3.0832    0.6825    0.8763 H   0  0  0  0  0  0  0  0  0  0  0  0
  1  2  2  0
  2  3  1  0
  2 23  1  0
  3  4  1  0
  3 34  1  0
  4  5  2  0
  4 22  1  0
  5  6  1  0
  5 35  1  0
  6  7  2  0
  6 36  1  0
  7  8  1  0
  7 21  1  0
  8  9  2  0
  8 19  1  0
  9 10  1  0
 10 11  1  0
 10 18  2  0
 11 12  2  0
 11 37  1  0
 12 13  1  0
 12 38  1  0
 13 14  1  0
 13 17  2  0
 14 15  1  0
 14 16  1  0
 17 18  1  0
 17 39  1  0
 18 19  1  0
 19 20  2  0
 20 40  1  0
 21 22  2  0
 21 41  1  0
 22 42  1  0
 23 24  2  0
 23 33  1  0
 24 25  1  0
 24 43  1  0
 25 26  2  0
 25 44  1  0
 26 27  1  0
 26 32  1  0
 27 28  1  0
 27 31  1  0
 28 29  2  0
 28 45  1  0
 29 30  1  0
 29 46  1  0
 30 31  2  0
 30 47  1  0
 32 33  2  0
 33 48  1  0
M  CHG  4  15  -1  16  -1  19   1  20   1
M  END

