
     RDKit          3D

 69 68  0  0  0  0  0  0  0  0999 V2000
    0.7796   -0.3689   -0.0725 C   0  0  0  0  0  0  0  0  0  0  0  0
    2.3064   -0.3449    0.0123 C   0  0  0  0  0  0  0  0  0  0  0  0
    2.8495    0.6717    1.0214 C   0  0  0  0  0  0  0  0  0  0  0  0
    4.3779    0.7021    1.1129 C   0  0  0  0  0  0  0  0  0  0  0  0
    4.9203    1.7188    2.1219 C   0  0  0  0  0  0  0  0  0  0  0  0
    6.4488    1.7484    2.2141 C   0  0  0  0  0  0  0  0  0  0  0  0
    6.9908    2.7654    3.2229 C   0  0  0  0  0  0  0  0  0  0  0  0
    8.5192    2.7941    3.3168 C   0  0  0  0  0  0  0  0  0  0  0  0
    9.0608    3.8116    4.3254 C   0  0  0  0  0  0  0  0  0  0  0  0
   10.5891    3.8387    4.4216 C   0  0  0  0  0  0  0  0  0  0  0  0
   11.1301    4.8568    5.4299 C   0  0  0  0  0  0  0  0  0  0  0  0
   12.6582    4.8814    5.5284 C   0  0  0  0  0  0  0  0  0  0  0  0
   13.1994    5.8995    6.5366 C   0  0  0  0  0  0  0  0  0  0  0  0
   14.7275    5.9181    6.6284 C   0  0  0  0  0  0  0  0  0  0  0  0
   15.2515    6.9370    7.6396 C   0  0  0  0  0  0  0  0  0  0  0  0
   16.7754    6.9751    7.7002 C   0  0  0  0  0  0  0  0  0  0  0  0
   17.4677    6.3685    6.9005 O   0  0  0  0  0  0  0  0  0  0  0  0
   17.3665    7.7044    8.7287 N   0  0  0  0  0  0  0  0  0  0  0  0
   18.8308    7.5872    8.8992 C   0  0  0  0  0  0  0  0  0  0  0  0
   19.2569    6.3770    9.6887 C   0  0  0  0  0  0  0  0  0  0  0  0
   19.9379    6.3431   10.8503 C   0  0  0  0  0  0  0  0  0  0  0  0
   20.3939    7.5582   11.6196 C   0  0  0  0  0  0  0  0  0  0  0  0
   20.3196    5.0247   11.4781 C   0  0  0  0  0  0  0  0  0  0  0  0
   16.6479    8.3870    9.7650 C   0  0  0  0  0  0  0  0  0  0  0  0
   16.6959    8.0977   11.0065 N   0  0  0  0  0  0  0  0  0  0  0  0
   15.8877    9.4405    9.3046 N   0  0  0  0  0  0  0  0  0  0  0  0
    0.4252   -1.1102   -0.8067 H   0  0  0  0  0  0  0  0  0  0  0  0
    0.3791    0.6141   -0.3728 H   0  0  0  0  0  0  0  0  0  0  0  0
    0.3278   -0.6233    0.9011 H   0  0  0  0  0  0  0  0  0  0  0  0
    2.7279   -0.1254   -0.9858 H   0  0  0  0  0  0  0  0  0  0  0  0
    2.6770   -1.3521    0.2773 H   0  0  0  0  0  0  0  0  0  0  0  0
    2.4283    0.4529    2.0207 H   0  0  0  0  0  0  0  0  0  0  0  0
    2.4794    1.6801    0.7569 H   0  0  0  0  0  0  0  0  0  0  0  0
    4.7986    0.9205    0.1135 H   0  0  0  0  0  0  0  0  0  0  0  0
    4.7473   -0.3063    1.3774 H   0  0  0  0  0  0  0  0  0  0  0  0
    4.4991    1.5009    3.1212 H   0  0  0  0  0  0  0  0  0  0  0  0
    4.5515    2.7275    1.8571 H   0  0  0  0  0  0  0  0  0  0  0  0
    6.8702    1.9660    1.2148 H   0  0  0  0  0  0  0  0  0  0  0  0
    6.8176    0.7399    2.4793 H   0  0  0  0  0  0  0  0  0  0  0  0
    6.5683    2.5485    4.2218 H   0  0  0  0  0  0  0  0  0  0  0  0
    6.6229    3.7741    2.9570 H   0  0  0  0  0  0  0  0  0  0  0  0
    8.9420    3.0104    2.3179 H   0  0  0  0  0  0  0  0  0  0  0  0
    8.8870    1.7856    3.5834 H   0  0  0  0  0  0  0  0  0  0  0  0
    8.6365    3.5961    5.3239 H   0  0  0  0  0  0  0  0  0  0  0  0
    8.6943    4.8204    4.0579 H   0  0  0  0  0  0  0  0  0  0  0  0
   11.0138    4.0534    3.4232 H   0  0  0  0  0  0  0  0  0  0  0  0
   10.9554    2.8302    4.6900 H   0  0  0  0  0  0  0  0  0  0  0  0
   10.7038    4.6432    6.4279 H   0  0  0  0  0  0  0  0  0  0  0  0
   10.7654    5.8657    5.1603 H   0  0  0  0  0  0  0  0  0  0  0  0
   13.0859    5.0950    4.5312 H   0  0  0  0  0  0  0  0  0  0  0  0
   13.0232    3.8731    5.7986 H   0  0  0  0  0  0  0  0  0  0  0  0
   12.7714    5.6867    7.5342 H   0  0  0  0  0  0  0  0  0  0  0  0
   12.8348    6.9086    6.2666 H   0  0  0  0  0  0  0  0  0  0  0  0
   15.1644    6.1359    5.6399 H   0  0  0  0  0  0  0  0  0  0  0  0
   15.1001    4.9144    6.8953 H   0  0  0  0  0  0  0  0  0  0  0  0
   14.8595    6.7262    8.6499 H   0  0  0  0  0  0  0  0  0  0  0  0
   14.8795    7.9469    7.4016 H   0  0  0  0  0  0  0  0  0  0  0  0
   19.1916    8.5216    9.3489 H   0  0  0  0  0  0  0  0  0  0  0  0
   19.2452    7.5133    7.8830 H   0  0  0  0  0  0  0  0  0  0  0  0
   18.9839    5.4242    9.2204 H   0  0  0  0  0  0  0  0  0  0  0  0
   20.0099    8.5041   11.2164 H   0  0  0  0  0  0  0  0  0  0  0  0
   21.4970    7.6149   11.6378 H   0  0  0  0  0  0  0  0  0  0  0  0
   20.0692    7.4896   12.6722 H   0  0  0  0  0  0  0  0  0  0  0  0
   19.9761    4.1673   10.8812 H   0  0  0  0  0  0  0  0  0  0  0  0
   19.8952    4.9329   12.4938 H   0  0  0  0  0  0  0  0  0  0  0  0
   21.4156    4.9463   11.5925 H   0  0  0  0  0  0  0  0  0  0  0  0
   17.2202    7.2337   11.1531 H   0  0  0  0  0  0  0  0  0  0  0  0
   16.2233    9.9386    8.4888 H   0  0  0  0  0  0  0  0  0  0  0  0
   15.4582   10.0063   10.0289 H   0  0  0  0  0  0  0  0  0  0  0  0
  1  2  1  0
  1 27  1  0
  1 28  1  0
  1 29  1  0
  2  3  1  0
  2 30  1  0
  2 31  1  0
  3  4  1  0
  3 32  1  0
  3 33  1  0
  4  5  1  0
  4 34  1  0
  4 35  1  0
  5  6  1  0
  5 36  1  0
  5 37  1  0
  6  7  1  0
  6 38  1  0
  6 39  1  0
  7  8  1  0
  7 40  1  0
  7 41  1  0
  8  9  1  0
  8 42  1  0
  8 43  1  0
  9 10  1  0
  9 44  1  0
  9 45  1  0
 10 11  1  0
 10 46  1  0
 10 47  1  0
 11 12  1  0
 11 48  1  0
 11 49  1  0
 12 13  1  0
 12 50  1  0
 12 51  1  0
 13 14  1  0
 13 52  1  0
 13 53  1  0
 14 15  1  0
 14 54  1  0
 14 55  1  0
 15 16  1  0
 15 56  1  0
 15 57  1  0
 16 17  2  0
 16 18  1  0
 18 19  1  0
 18 24  1  0
 19 20  1  0
 19 58  1  0
 19 59  1  0
 20 21  2  0
 20 60  1  0
 21 22  1  0
 21 23  1  0
 22 61  1  0
 22 62  1  0
 22 63  1  0
 23 64  1  0
 23 65  1  0
 23 66  1  0
 24 25  2  0
 24 26  1  0
 25 67  1  0
 26 68  1  0
 26 69  1  0
M  END

