
     RDKit          3D

 52 53  0  0  0  0  0  0  0  0999 V2000
    8.8640   -1.7748    1.3797 C   0  0  0  0  0  0  0  0  0  0  0  0
    9.3467   -1.1425    2.4596 C   0  0  0  0  0  0  0  0  0  0  0  0
    8.7313    0.0141    3.1324 C   0  0  0  0  0  0  0  0  0  0  0  0
    7.3749    0.1315    3.2934 C   0  0  0  0  0  0  0  0  0  0  0  0
    6.7912    1.1773    3.9295 N   0  0  0  0  0  0  0  0  0  0  0  0
    5.3194    1.1764    4.0683 C   0  0  2  0  0  0  0  0  0  0  0  0
    4.9953    0.3251    3.4428 H   0  0  0  0  0  0  0  0  0  0  0  0
    4.7666    2.3551    3.5799 O   0  0  0  0  0  0  0  0  0  0  0  0
    3.7997    2.9133    4.4945 C   0  0  2  0  0  0  0  0  0  0  0  0
    2.8019    2.5291    4.2011 H   0  0  0  0  0  0  0  0  0  0  0  0
    3.8160    4.4240    4.3744 C   0  0  0  0  0  0  0  0  0  0  0  0
    4.1333    2.3367    5.8845 C   0  0  2  0  0  0  0  0  0  0  0  0
    4.9779    3.1079    6.6909 O   0  0  0  0  0  0  0  0  0  0  0  0
    4.7962    0.9715    5.5353 C   0  0  2  0  0  0  0  0  0  0  0  0
    5.7665    0.5908    6.4568 O   0  0  0  0  0  0  0  0  0  0  0  0
    7.5968    2.1991    4.5105 C   0  0  0  0  0  0  0  0  0  0  0  0
    7.0759    3.1130    5.1382 O   0  0  0  0  0  0  0  0  0  0  0  0
    8.9429    2.1155    4.3209 N   0  0  0  0  0  0  0  0  0  0  0  0
    9.4919    1.1157    3.6901 C   0  0  0  0  0  0  0  0  0  0  0  0
   10.8634    1.0806    3.5049 N   0  0  0  0  0  0  0  0  0  0  0  0
   11.8392    1.9682    3.9653 C   0  0  0  0  0  0  0  0  0  0  0  0
   11.6878    2.9393    4.6496 O   0  0  0  0  0  0  0  0  0  0  0  0
   13.0286    1.5185    3.4904 O   0  0  0  0  0  0  0  0  0  0  0  0
   14.1966    2.2918    3.8301 C   0  0  0  0  0  0  0  0  0  0  0  0
   14.7586    1.9299    5.1983 C   0  0  0  0  0  0  0  0  0  0  0  0
   15.1675    0.4563    5.3271 C   0  0  0  0  0  0  0  0  0  0  0  0
   15.7145    0.1215    6.6290 N   0  0  0  0  0  0  0  0  0  0  0  0
   17.0525    0.2309    6.8998 C   0  0  0  0  0  0  0  0  0  0  0  0
   17.4622   -0.0916    8.3285 C   0  0  0  0  0  0  0  0  0  0  0  0
   17.8653    0.5619    6.0528 O   0  0  0  0  0  0  0  0  0  0  0  0
    9.3578   -2.6636    0.9791 H   0  0  0  0  0  0  0  0  0  0  0  0
    7.9661   -1.4282    0.8588 H   0  0  0  0  0  0  0  0  0  0  0  0
   10.2700   -1.5287    2.9123 H   0  0  0  0  0  0  0  0  0  0  0  0
    6.6993   -0.6424    2.9239 H   0  0  0  0  0  0  0  0  0  0  0  0
    3.5936    4.7212    3.3386 H   0  0  0  0  0  0  0  0  0  0  0  0
    4.8020    4.8234    4.6481 H   0  0  0  0  0  0  0  0  0  0  0  0
    3.0580    4.8686    5.0372 H   0  0  0  0  0  0  0  0  0  0  0  0
    3.2082    2.1816    6.4610 H   0  0  0  0  0  0  0  0  0  0  0  0
    5.7881    3.3035    6.1619 H   0  0  0  0  0  0  0  0  0  0  0  0
    4.0194    0.1877    5.4842 H   0  0  0  0  0  0  0  0  0  0  0  0
    5.9232    1.3866    7.0012 H   0  0  0  0  0  0  0  0  0  0  0  0
   11.2261    0.3423    2.9131 H   0  0  0  0  0  0  0  0  0  0  0  0
   13.9391    3.3600    3.7906 H   0  0  0  0  0  0  0  0  0  0  0  0
   14.9181    2.0640    3.0316 H   0  0  0  0  0  0  0  0  0  0  0  0
   14.0206    2.1948    5.9735 H   0  0  0  0  0  0  0  0  0  0  0  0
   15.6473    2.5595    5.3719 H   0  0  0  0  0  0  0  0  0  0  0  0
   15.9438    0.2236    4.5823 H   0  0  0  0  0  0  0  0  0  0  0  0
   14.3035   -0.1969    5.1263 H   0  0  0  0  0  0  0  0  0  0  0  0
   15.0757   -0.0880    7.3859 H   0  0  0  0  0  0  0  0  0  0  0  0
   16.6423   -0.4726    8.9554 H   0  0  0  0  0  0  0  0  0  0  0  0
   17.8746    0.8183    8.7915 H   0  0  0  0  0  0  0  0  0  0  0  0
   18.2728   -0.8345    8.3006 H   0  0  0  0  0  0  0  0  0  0  0  0
  1  2  2  0
  1 31  1  0
  1 32  1  0
  2  3  1  0
  2 33  1  0
  3  4  2  0
  3 19  1  0
  4  5  1  0
  4 34  1  0
  5  6  1  0
  5 16  1  0
  6  7  1  6
  6  8  1  0
  6 14  1  0
  8  9  1  0
  9 10  1  6
  9 11  1  0
  9 12  1  0
 11 35  1  0
 11 36  1  0
 11 37  1  0
 12 13  1  0
 12 14  1  0
 12 38  1  1
 13 39  1  0
 14 15  1  0
 14 40  1  6
 15 41  1  0
 16 17  2  0
 16 18  1  0
 18 19  2  0
 19 20  1  0
 20 21  1  0
 20 42  1  0
 21 22  2  0
 21 23  1  0
 23 24  1  0
 24 25  1  0
 24 43  1  0
 24 44  1  0
 25 26  1  0
 25 45  1  0
 25 46  1  0
 26 27  1  0
 26 47  1  0
 26 48  1  0
 27 28  1  0
 27 49  1  0
 28 29  1  0
 28 30  2  0
 29 50  1  0
 29 51  1  0
 29 52  1  0
M  END

