
     RDKit          3D

 42 43  0  0  0  0  0  0  0  0999 V2000
    2.2132   -1.7453    0.3542 C   0  0  0  0  0  0  0  0  0  0  0  0
    2.3565   -0.3039   -0.1841 C   0  0  1  0  0  0  0  0  0  0  0  0
    3.1258   -0.3706   -1.5194 C   0  0  0  0  0  0  0  0  0  0  0  0
    0.9341    0.2212   -0.4719 C   0  0  0  0  0  0  0  0  0  0  0  0
    3.0353    0.5778    0.9353 C   0  0  1  0  0  0  0  0  0  0  0  0
    4.4965    0.2093    1.2991 C   0  0  0  0  0  0  0  0  0  0  0  0
    5.5802    0.8835    0.4441 C   0  0  0  0  0  0  0  0  0  0  0  0
    5.4374    2.4262    0.3927 C   0  0  2  0  0  0  0  0  0  0  0  0
    5.8648    3.0185    1.7372 C   0  0  0  0  0  0  0  0  0  0  0  0
    5.1443    3.1891    2.6867 O   0  0  0  0  0  0  0  0  0  0  0  0
    7.1849    3.2938    1.8459 O   0  0  0  0  0  0  0  0  0  0  0  0
    4.0002    2.7987   -0.0642 C   0  0  2  0  0  0  0  0  0  0  0  0
    3.7920    4.2960   -0.2267 C   0  0  0  0  0  0  0  0  0  0  0  0
    3.8631    4.8752   -1.5071 C   0  0  0  0  0  0  0  0  0  0  0  0
    3.7036    6.1752   -1.7572 N   0  0  0  0  0  0  0  0  0  0  0  0
    3.4546    6.9917   -0.7350 C   0  0  0  0  0  0  0  0  0  0  0  0
    3.3595    6.5126    0.5726 C   0  0  0  0  0  0  0  0  0  0  0  0
    3.1039    7.3684    1.5694 F   0  0  0  0  0  0  0  0  0  0  0  0
    3.5282    5.1605    0.8472 C   0  0  0  0  0  0  0  0  0  0  0  0
    2.9194    2.1190    0.8042 C   0  0  0  0  0  0  0  0  0  0  0  0
    1.7058   -2.3854   -0.3854 H   0  0  0  0  0  0  0  0  0  0  0  0
    1.6161   -1.7684    1.2805 H   0  0  0  0  0  0  0  0  0  0  0  0
    3.1871   -2.2103    0.5717 H   0  0  0  0  0  0  0  0  0  0  0  0
    2.5637   -0.9810   -2.2455 H   0  0  0  0  0  0  0  0  0  0  0  0
    4.1151   -0.8396   -1.4060 H   0  0  0  0  0  0  0  0  0  0  0  0
    3.2651    0.6214   -1.9752 H   0  0  0  0  0  0  0  0  0  0  0  0
    0.3852   -0.4931   -1.1067 H   0  0  0  0  0  0  0  0  0  0  0  0
    0.9415    1.1853   -1.0030 H   0  0  0  0  0  0  0  0  0  0  0  0
    0.3554    0.3517    0.4575 H   0  0  0  0  0  0  0  0  0  0  0  0
    2.4390    0.3330    1.8313 H   0  0  0  0  0  0  0  0  0  0  0  0
    4.6450   -0.8809    1.2669 H   0  0  0  0  0  0  0  0  0  0  0  0
    4.6607    0.5014    2.3493 H   0  0  0  0  0  0  0  0  0  0  0  0
    5.5487    0.5138   -0.5914 H   0  0  0  0  0  0  0  0  0  0  0  0
    6.5765    0.6158    0.8357 H   0  0  0  0  0  0  0  0  0  0  0  0
    6.1357    2.8103   -0.3725 H   0  0  0  0  0  0  0  0  0  0  0  0
    7.6333    3.1444    1.0017 H   0  0  0  0  0  0  0  0  0  0  0  0
    3.9260    2.3808   -1.0810 H   0  0  0  0  0  0  0  0  0  0  0  0
    4.0560    4.2346   -2.3773 H   0  0  0  0  0  0  0  0  0  0  0  0
    3.3209    8.0608   -0.9358 H   0  0  0  0  0  0  0  0  0  0  0  0
    3.4687    4.8071    1.8772 H   0  0  0  0  0  0  0  0  0  0  0  0
    1.9301    2.4068    0.4217 H   0  0  0  0  0  0  0  0  0  0  0  0
    2.9910    2.5333    1.8192 H   0  0  0  0  0  0  0  0  0  0  0  0
  2  1  1  1
  1 21  1  0
  1 22  1  0
  1 23  1  0
  2  3  1  0
  2  4  1  0
  2  5  1  0
  3 24  1  0
  3 25  1  0
  3 26  1  0
  4 27  1  0
  4 28  1  0
  4 29  1  0
  5  6  1  0
  5 20  1  0
  5 30  1  1
  6  7  1  0
  6 31  1  0
  6 32  1  0
  7  8  1  0
  7 33  1  0
  7 34  1  0
  8  9  1  0
  8 12  1  0
  8 35  1  6
  9 10  2  0
  9 11  1  0
 11 36  1  0
 12 13  1  0
 12 20  1  0
 12 37  1  6
 13 14  2  0
 13 19  1  0
 14 15  1  0
 14 38  1  0
 15 16  2  0
 16 17  1  0
 16 39  1  0
 17 18  1  0
 17 19  2  0
 19 40  1  0
 20 41  1  0
 20 42  1  0
M  END

