
     RDKit          3D

 45 47  0  0  0  0  0  0  0  0999 V2000
    7.3146   -3.0148   -6.7331 C   0  0  0  0  0  0  0  0  0  0  0  0
    7.6260   -4.1620   -5.7721 C   0  0  0  0  0  0  0  0  0  0  0  0
    7.1899   -3.8984   -4.4108 N   0  0  0  0  0  0  0  0  0  0  0  0
    6.2277   -4.6360   -3.7811 C   0  0  0  0  0  0  0  0  0  0  0  0
    5.6884   -5.6039   -4.2997 O   0  0  0  0  0  0  0  0  0  0  0  0
    5.8704   -4.2035   -2.3780 C   0  0  0  0  0  0  0  0  0  0  0  0
    6.1581   -2.9395   -1.8390 C   0  0  0  0  0  0  0  0  0  0  0  0
    5.7737   -2.6434   -0.5297 C   0  0  0  0  0  0  0  0  0  0  0  0
    5.1028   -3.5783    0.2613 C   0  0  0  0  0  0  0  0  0  0  0  0
    4.8000   -4.8417   -0.2797 C   0  0  0  0  0  0  0  0  0  0  0  0
    4.1222   -5.8503    0.4347 N   0  0  0  0  0  0  0  0  0  0  0  0
    3.6314   -5.8147    1.7229 C   0  0  0  0  0  0  0  0  0  0  0  0
    3.6810   -4.8418    2.4523 O   0  0  0  0  0  0  0  0  0  0  0  0
    3.0048   -7.0912    2.1846 C   0  0  0  0  0  0  0  0  0  0  0  0
    3.3900   -8.3866    1.9660 C   0  0  0  0  0  0  0  0  0  0  0  0
    4.5000   -9.0522    1.2323 C   0  0  0  0  0  0  0  0  0  0  0  0
    2.5530   -9.2264    2.6606 O   0  0  0  0  0  0  0  0  0  0  0  0
    1.6435   -8.4861    3.3221 C   0  0  0  0  0  0  0  0  0  0  0  0
    0.7166   -9.1892    4.0619 N   0  0  0  0  0  0  0  0  0  0  0  0
    0.6651  -10.5807    4.1547 C   0  0  0  0  0  0  0  0  0  0  0  0
   -0.3832  -10.9095    4.9753 C   0  0  0  0  0  0  0  0  0  0  0  0
   -0.9996   -9.6884    5.4042 C   0  0  0  0  0  0  0  0  0  0  0  0
   -0.3112   -8.6479    4.8339 C   0  0  0  0  0  0  0  0  0  0  0  0
    1.8648   -7.1423    3.0876 C   0  0  0  0  0  0  0  0  0  0  0  0
    1.1176   -6.0489    3.5989 C   0  0  0  0  0  0  0  0  0  0  0  0
    0.4681   -5.1878    4.0313 N   0  0  0  0  0  0  0  0  0  0  0  0
    5.1831   -5.1364   -1.5966 C   0  0  0  0  0  0  0  0  0  0  0  0
    7.6723   -3.2543   -7.7474 H   0  0  0  0  0  0  0  0  0  0  0  0
    7.8062   -2.0784   -6.4197 H   0  0  0  0  0  0  0  0  0  0  0  0
    6.2306   -2.8285   -6.7858 H   0  0  0  0  0  0  0  0  0  0  0  0
    8.7103   -4.3749   -5.7750 H   0  0  0  0  0  0  0  0  0  0  0  0
    7.1125   -5.0821   -6.0841 H   0  0  0  0  0  0  0  0  0  0  0  0
    7.6593   -3.1681   -3.8910 H   0  0  0  0  0  0  0  0  0  0  0  0
    6.6494   -2.1685   -2.4370 H   0  0  0  0  0  0  0  0  0  0  0  0
    5.9897   -1.6567   -0.1124 H   0  0  0  0  0  0  0  0  0  0  0  0
    4.7987   -3.3432    1.2784 H   0  0  0  0  0  0  0  0  0  0  0  0
    3.8939   -6.6747   -0.1080 H   0  0  0  0  0  0  0  0  0  0  0  0
    5.2219   -8.3116    0.8656 H   0  0  0  0  0  0  0  0  0  0  0  0
    4.1283   -9.6378    0.3738 H   0  0  0  0  0  0  0  0  0  0  0  0
    5.0334   -9.7502    1.8975 H   0  0  0  0  0  0  0  0  0  0  0  0
    1.3852  -11.1943    3.6230 H   0  0  0  0  0  0  0  0  0  0  0  0
   -0.6819  -11.9209    5.2440 H   0  0  0  0  0  0  0  0  0  0  0  0
   -1.8594   -9.5870    6.0634 H   0  0  0  0  0  0  0  0  0  0  0  0
   -0.4551   -7.5739    4.9037 H   0  0  0  0  0  0  0  0  0  0  0  0
    4.9496   -6.1019   -2.0529 H   0  0  0  0  0  0  0  0  0  0  0  0
  1  2  1  0
  1 28  1  0
  1 29  1  0
  1 30  1  0
  2  3  1  0
  2 31  1  0
  2 32  1  0
  3  4  1  0
  3 33  1  0
  4  5  2  0
  4  6  1  0
  6  7  2  0
  6 27  1  0
  7  8  1  0
  7 34  1  0
  8  9  2  0
  8 35  1  0
  9 10  1  0
  9 36  1  0
 10 11  1  0
 10 27  2  0
 11 12  1  0
 11 37  1  0
 12 13  2  0
 12 14  1  0
 14 15  2  0
 14 24  1  0
 15 16  1  0
 15 17  1  0
 16 38  1  0
 16 39  1  0
 16 40  1  0
 17 18  1  0
 18 19  1  0
 18 24  2  0
 19 20  1  0
 19 23  1  0
 20 21  2  0
 20 41  1  0
 21 22  1  0
 21 42  1  0
 22 23  2  0
 22 43  1  0
 23 44  1  0
 24 25  1  0
 25 26  3  0
 27 45  1  0
M  END

