
     RDKit          3D

 35 36  0  0  0  0  0  0  0  0999 V2000
    5.1919    0.0797    0.6914 C   0  0  0  0  0  0  0  0  0  0  0  0
    4.4521   -0.9990    1.4748 C   0  0  1  0  0  0  0  0  0  0  0  0
    4.1138   -0.6377    2.9300 C   0  0  0  0  0  0  0  0  0  0  0  0
    3.0050   -1.6336    3.3595 C   0  0  0  0  0  0  0  0  0  0  0  0
    2.4432   -2.2345    2.0439 C   0  0  0  0  0  0  0  0  0  0  0  0
    3.0779   -1.4002    0.9008 C   0  0  2  0  0  0  0  0  0  0  0  0
    3.1756   -2.0270   -0.4099 N   0  0  0  0  0  0  0  0  0  0  0  0
    1.9224   -2.3133   -1.0863 C   0  0  0  0  0  0  0  0  0  0  0  0
    1.3110   -1.1144   -1.7909 C   0  0  0  0  0  0  0  0  0  0  0  0
    2.0947   -0.0381   -2.2411 C   0  0  0  0  0  0  0  0  0  0  0  0
    1.4760    1.0105   -2.9112 C   0  0  0  0  0  0  0  0  0  0  0  0
    0.0872    0.9729   -3.1108 C   0  0  0  0  0  0  0  0  0  0  0  0
   -0.5659    2.1083   -3.8441 C   0  0  0  0  0  0  0  0  0  0  0  0
    0.0554    2.9189   -4.4793 O   0  0  0  0  0  0  0  0  0  0  0  0
   -1.9129    2.1922   -3.7607 O   0  0  0  0  0  0  0  0  0  0  0  0
   -0.5968   -0.1579   -2.6401 C   0  0  0  0  0  0  0  0  0  0  0  0
   -0.0118   -1.1652   -1.9968 N   0  0  0  0  0  0  0  0  0  0  0  0
    6.1657    0.3144    1.1509 H   0  0  0  0  0  0  0  0  0  0  0  0
    4.6054    1.0139    0.6565 H   0  0  0  0  0  0  0  0  0  0  0  0
    5.3736   -0.2435   -0.3451 H   0  0  0  0  0  0  0  0  0  0  0  0
    5.0746   -1.9174    1.4826 H   0  0  0  0  0  0  0  0  0  0  0  0
    3.7302    0.3973    2.9586 H   0  0  0  0  0  0  0  0  0  0  0  0
    4.9955   -0.6656    3.5892 H   0  0  0  0  0  0  0  0  0  0  0  0
    2.2232   -1.1290    3.9476 H   0  0  0  0  0  0  0  0  0  0  0  0
    3.4123   -2.4270    4.0053 H   0  0  0  0  0  0  0  0  0  0  0  0
    1.3432   -2.2353    2.0122 H   0  0  0  0  0  0  0  0  0  0  0  0
    2.7656   -3.2842    1.9283 H   0  0  0  0  0  0  0  0  0  0  0  0
    2.4879   -0.4722    0.7734 H   0  0  0  0  0  0  0  0  0  0  0  0
    3.7448   -2.8691   -0.3510 H   0  0  0  0  0  0  0  0  0  0  0  0
    1.1322   -2.7425   -0.4388 H   0  0  0  0  0  0  0  0  0  0  0  0
    2.1170   -3.0757   -1.8621 H   0  0  0  0  0  0  0  0  0  0  0  0
    3.1688   -0.0500   -2.0529 H   0  0  0  0  0  0  0  0  0  0  0  0
    2.0384    1.8670   -3.2895 H   0  0  0  0  0  0  0  0  0  0  0  0
   -2.2609    1.5489   -3.1278 H   0  0  0  0  0  0  0  0  0  0  0  0
   -1.6775   -0.2737   -2.8058 H   0  0  0  0  0  0  0  0  0  0  0  0
  1  2  1  0
  1 18  1  0
  1 19  1  0
  1 20  1  0
  2  3  1  0
  2  6  1  0
  2 21  1  1
  3  4  1  0
  3 22  1  0
  3 23  1  0
  4  5  1  0
  4 24  1  0
  4 25  1  0
  5  6  1  0
  5 26  1  0
  5 27  1  0
  6  7  1  0
  6 28  1  6
  7  8  1  0
  7 29  1  0
  8  9  1  0
  8 30  1  0
  8 31  1  0
  9 10  2  0
  9 17  1  0
 10 11  1  0
 10 32  1  0
 11 12  2  0
 11 33  1  0
 12 13  1  0
 12 16  1  0
 13 14  2  0
 13 15  1  0
 15 34  1  0
 16 17  2  0
 16 35  1  0
M  END

