
     RDKit          3D

 38 39  0  0  0  0  0  0  0  0999 V2000
    1.4618    3.5221   -5.1207 C   0  0  0  0  0  0  0  0  0  0  0  0
    2.8994    3.1049   -4.8063 C   0  0  0  0  0  0  0  0  0  0  0  0
    3.1704    3.0021   -3.3003 C   0  0  0  0  0  0  0  0  0  0  0  0
    4.6230    2.6345   -2.9595 C   0  0  2  0  0  0  0  0  0  0  0  0
    4.9351    1.2320   -3.5341 C   0  0  0  0  0  0  0  0  0  0  0  0
    4.1130    0.3512   -3.5593 O   0  0  0  0  0  0  0  0  0  0  0  0
    6.1716    1.0378   -4.0098 O   0  0  0  0  0  0  0  0  0  0  0  0
    4.9521    2.6478   -1.4327 C   0  0  2  0  0  0  0  0  0  0  0  0
    4.5370    1.7250   -0.9944 H   0  0  0  0  0  0  0  0  0  0  0  0
    4.3743    3.8498   -0.6272 C   0  0  0  0  0  0  0  0  0  0  0  0
    2.9230    3.7652   -0.1895 C   0  0  0  0  0  0  0  0  0  0  0  0
    2.4143    2.6215    0.4473 C   0  0  0  0  0  0  0  0  0  0  0  0
    1.0941    2.5787    0.9035 C   0  0  0  0  0  0  0  0  0  0  0  0
    0.2550    3.6847    0.7388 C   0  0  0  0  0  0  0  0  0  0  0  0
    0.7502    4.8338    0.1169 C   0  0  0  0  0  0  0  0  0  0  0  0
    2.0702    4.8700   -0.3413 C   0  0  0  0  0  0  0  0  0  0  0  0
    6.4456    2.5978   -1.2052 C   0  0  0  0  0  0  0  0  0  0  0  0
    7.3951    2.6614   -2.1802 N   0  0  0  0  0  0  0  0  0  0  0  0
    8.5608    2.6186   -1.5989 N   0  0  0  0  0  0  0  0  0  0  0  0
    8.2997    2.5397   -0.3121 N   0  0  0  0  0  0  0  0  0  0  0  0
    9.0375    2.4916    0.3865 H   0  0  0  0  0  0  0  0  0  0  0  0
    7.0148    2.5227   -0.0046 N   0  0  0  0  0  0  0  0  0  0  0  0
    1.2907    3.5886   -6.2070 H   0  0  0  0  0  0  0  0  0  0  0  0
    1.2209    4.5063   -4.6843 H   0  0  0  0  0  0  0  0  0  0  0  0
    0.7389    2.7960   -4.7135 H   0  0  0  0  0  0  0  0  0  0  0  0
    3.6007    3.8328   -5.2554 H   0  0  0  0  0  0  0  0  0  0  0  0
    3.1082    2.1351   -5.2866 H   0  0  0  0  0  0  0  0  0  0  0  0
    2.4977    2.2523   -2.8549 H   0  0  0  0  0  0  0  0  0  0  0  0
    2.9214    3.9671   -2.8358 H   0  0  0  0  0  0  0  0  0  0  0  0
    5.2868    3.3689   -3.4469 H   0  0  0  0  0  0  0  0  0  0  0  0
    6.7600    1.7689   -3.7205 H   0  0  0  0  0  0  0  0  0  0  0  0
    4.5406    4.7796   -1.1956 H   0  0  0  0  0  0  0  0  0  0  0  0
    4.9857    3.9407    0.2856 H   0  0  0  0  0  0  0  0  0  0  0  0
    3.0545    1.7481    0.5980 H   0  0  0  0  0  0  0  0  0  0  0  0
    0.7204    1.6754    1.3926 H   0  0  0  0  0  0  0  0  0  0  0  0
   -0.7779    3.6508    1.0940 H   0  0  0  0  0  0  0  0  0  0  0  0
    0.1060    5.7069   -0.0164 H   0  0  0  0  0  0  0  0  0  0  0  0
    2.4460    5.7746   -0.8285 H   0  0  0  0  0  0  0  0  0  0  0  0
  1  2  1  0
  1 23  1  0
  1 24  1  0
  1 25  1  0
  2  3  1  0
  2 26  1  0
  2 27  1  0
  3  4  1  0
  3 28  1  0
  3 29  1  0
  4  5  1  0
  4  8  1  0
  4 30  1  6
  5  6  2  0
  5  7  1  0
  7 31  1  0
  8  9  1  1
  8 10  1  0
  8 17  1  0
 10 11  1  0
 10 32  1  0
 10 33  1  0
 11 12  2  0
 11 16  1  0
 12 13  1  0
 12 34  1  0
 13 14  2  0
 13 35  1  0
 14 15  1  0
 14 36  1  0
 15 16  2  0
 15 37  1  0
 16 38  1  0
 17 18  1  0
 17 22  2  0
 18 19  2  0
 19 20  1  0
 20 21  1  0
 20 22  1  0
M  END

