
     RDKit          3D

 45 48  0  0  0  0  0  0  0  0999 V2000
    3.3661   -0.3972   -2.1153 C   0  0  0  0  0  0  0  0  0  0  0  0
    3.4370   -0.1179   -0.6915 N   0  0  0  0  0  0  0  0  0  0  0  0
    3.6707    1.1124   -0.1060 C   0  0  0  0  0  0  0  0  0  0  0  0
    3.6961    0.8860    1.2503 C   0  0  0  0  0  0  0  0  0  0  0  0
    3.4866   -0.4454    1.5070 N   0  0  0  0  0  0  0  0  0  0  0  0
    3.3398   -1.0226    0.3301 C   0  0  0  0  0  0  0  0  0  0  0  0
    3.0532   -2.4919    0.1407 C   0  0  1  0  0  0  0  0  0  0  0  0
    3.4399   -3.1650    1.3692 N   0  0  0  0  0  0  0  0  0  0  0  0
    3.8783   -4.4533    1.3742 C   0  0  0  0  0  0  0  0  0  0  0  0
    3.8811   -5.1447    0.3606 O   0  0  0  0  0  0  0  0  0  0  0  0
    4.3549   -4.9937    2.6963 C   0  0  0  0  0  0  0  0  0  0  0  0
    4.4144   -6.4093    2.8343 C   0  0  0  0  0  0  0  0  0  0  0  0
    4.8513   -6.9821    4.0062 C   0  0  0  0  0  0  0  0  0  0  0  0
    5.2715   -6.1785    5.1046 C   0  0  0  0  0  0  0  0  0  0  0  0
    5.7323   -6.7366    6.3291 C   0  0  0  0  0  0  0  0  0  0  0  0
    6.1409   -5.9244    7.3668 C   0  0  0  0  0  0  0  0  0  0  0  0
    6.1089   -4.5130    7.2278 C   0  0  0  0  0  0  0  0  0  0  0  0
    5.6674   -3.9406    6.0535 C   0  0  0  0  0  0  0  0  0  0  0  0
    5.2352   -4.7505    4.9652 C   0  0  0  0  0  0  0  0  0  0  0  0
    4.7702   -4.1898    3.7442 C   0  0  0  0  0  0  0  0  0  0  0  0
    1.5948   -2.7688   -0.2509 C   0  0  0  0  0  0  0  0  0  0  0  0
    0.5407   -2.0249    0.3015 C   0  0  0  0  0  0  0  0  0  0  0  0
   -0.7862   -2.3063   -0.0303 C   0  0  0  0  0  0  0  0  0  0  0  0
   -1.0510   -3.3440   -0.9220 C   0  0  0  0  0  0  0  0  0  0  0  0
   -2.3233   -3.6157   -1.2492 F   0  0  0  0  0  0  0  0  0  0  0  0
   -0.0272   -4.1051   -1.4813 C   0  0  0  0  0  0  0  0  0  0  0  0
    1.2954   -3.8139   -1.1383 C   0  0  0  0  0  0  0  0  0  0  0  0
    3.2567    0.5483   -2.6625 H   0  0  0  0  0  0  0  0  0  0  0  0
    2.4971   -1.0324   -2.3393 H   0  0  0  0  0  0  0  0  0  0  0  0
    4.2778   -0.9048   -2.4699 H   0  0  0  0  0  0  0  0  0  0  0  0
    3.7973    2.0147   -0.6995 H   0  0  0  0  0  0  0  0  0  0  0  0
    3.8520    1.6103    2.0484 H   0  0  0  0  0  0  0  0  0  0  0  0
    3.6876   -2.9000   -0.6632 H   0  0  0  0  0  0  0  0  0  0  0  0
    3.4367   -2.5861    2.2035 H   0  0  0  0  0  0  0  0  0  0  0  0
    4.1056   -7.0168    1.9821 H   0  0  0  0  0  0  0  0  0  0  0  0
    4.8856   -8.0704    4.1075 H   0  0  0  0  0  0  0  0  0  0  0  0
    5.7588   -7.8247    6.4346 H   0  0  0  0  0  0  0  0  0  0  0  0
    6.4928   -6.3667    8.3023 H   0  0  0  0  0  0  0  0  0  0  0  0
    6.4361   -3.8806    8.0570 H   0  0  0  0  0  0  0  0  0  0  0  0
    5.6412   -2.8529    5.9433 H   0  0  0  0  0  0  0  0  0  0  0  0
    4.7762   -3.1002    3.6494 H   0  0  0  0  0  0  0  0  0  0  0  0
    0.7585   -1.2162    1.0038 H   0  0  0  0  0  0  0  0  0  0  0  0
   -1.6166   -1.7355    0.3901 H   0  0  0  0  0  0  0  0  0  0  0  0
   -0.2757   -4.9161   -2.1687 H   0  0  0  0  0  0  0  0  0  0  0  0
    2.1087   -4.4230   -1.5388 H   0  0  0  0  0  0  0  0  0  0  0  0
  1  2  1  0
  1 28  1  0
  1 29  1  0
  1 30  1  0
  2  3  1  0
  2  6  1  0
  3  4  2  0
  3 31  1  0
  4  5  1  0
  4 32  1  0
  5  6  2  0
  6  7  1  0
  7  8  1  0
  7 21  1  0
  7 33  1  6
  8  9  1  0
  8 34  1  0
  9 10  2  0
  9 11  1  0
 11 12  2  0
 11 20  1  0
 12 13  1  0
 12 35  1  0
 13 14  2  0
 13 36  1  0
 14 15  1  0
 14 19  1  0
 15 16  2  0
 15 37  1  0
 16 17  1  0
 16 38  1  0
 17 18  2  0
 17 39  1  0
 18 19  1  0
 18 40  1  0
 19 20  2  0
 20 41  1  0
 21 22  2  0
 21 27  1  0
 22 23  1  0
 22 42  1  0
 23 24  2  0
 23 43  1  0
 24 25  1  0
 24 26  1  0
 26 27  2  0
 26 44  1  0
 27 45  1  0
M  END

