
     RDKit          3D

 69 72  0  0  0  0  0  0  0  0999 V2000
    1.4189   -0.8896    0.5773 C   0  0  0  0  0  0  0  0  0  0  0  0
    2.7218   -1.1253    0.3370 C   0  0  0  0  0  0  0  0  0  0  0  0
    3.3594   -2.4431    0.6435 C   0  0  0  0  0  0  0  0  0  0  0  0
    2.7859   -3.1159    1.6971 N   0  0  0  0  0  0  0  0  0  0  0  0
    3.1177   -4.4383    2.2146 C   0  0  2  0  0  0  0  0  0  0  0  0
    4.4122   -4.3709    3.0601 C   0  0  0  0  0  0  0  0  0  0  0  0
    5.0063   -5.7454    3.2980 C   0  0  0  0  0  0  0  0  0  0  0  0
    5.2546   -6.3933    2.0605 O   0  0  0  0  0  0  0  0  0  0  0  0
    4.1384   -6.6303    1.2905 C   0  0  0  0  0  0  0  0  0  0  0  0
    4.0161   -7.9132    0.8215 C   0  0  0  0  0  0  0  0  0  0  0  0
    2.9363   -8.4688    0.0441 C   0  0  0  0  0  0  0  0  0  0  0  0
    2.1493   -7.7814   -0.8145 C   0  0  0  0  0  0  0  0  0  0  0  0
    2.4492   -6.3442   -1.1595 C   0  0  0  0  0  0  0  0  0  0  0  0
    2.3215   -5.5245    0.0839 C   0  0  0  0  0  0  0  0  0  0  0  0
    1.2849   -4.6647    0.0788 F   0  0  0  0  0  0  0  0  0  0  0  0
    3.1724   -5.5407    1.1431 C   0  0  0  0  0  0  0  0  0  0  0  0
    4.4248   -2.9483   -0.0677 C   0  0  0  0  0  0  0  0  0  0  0  0
    5.0704   -2.4627   -1.2849 C   0  0  0  0  0  0  0  0  0  0  0  0
    6.0263   -3.4785   -1.8802 C   0  0  0  0  0  0  0  0  0  0  0  0
    5.6297   -4.6064   -2.1473 O   0  0  0  0  0  0  0  0  0  0  0  0
    7.3155   -3.0791   -2.1432 N   0  0  0  0  0  0  0  0  0  0  0  0
    8.2139   -3.9962   -2.8399 C   0  0  0  0  0  0  0  0  0  0  0  0
    9.0639   -3.2076   -3.8345 C   0  0  0  0  0  0  0  0  0  0  0  0
    9.7549   -2.1444   -3.2075 O   0  0  0  0  0  0  0  0  0  0  0  0
    8.8762   -1.2462   -2.5596 C   0  0  0  0  0  0  0  0  0  0  0  0
    8.0188   -1.9597   -1.5166 C   0  0  0  0  0  0  0  0  0  0  0  0
    4.8491   -1.3254   -1.9855 C   0  0  0  0  0  0  0  0  0  0  0  0
    3.8577   -0.2428   -1.6498 C   0  0  0  0  0  0  0  0  0  0  0  0
    3.5316   -0.0953   -0.2355 N   0  0  0  0  0  0  0  0  0  0  0  0
    4.2909    0.7748    0.6061 C   0  0  0  0  0  0  0  0  0  0  0  0
    5.0243    0.1122    1.7569 C   0  0  0  0  0  0  0  0  0  0  0  0
    6.1047   -0.7191    1.3680 O   0  0  0  0  0  0  0  0  0  0  0  0
    4.3326    2.1108    0.3619 C   0  0  0  0  0  0  0  0  0  0  0  0
    3.4517    2.7719   -0.6691 C   0  0  0  0  0  0  0  0  0  0  0  0
    5.2610    3.0716    1.0667 C   0  0  0  0  0  0  0  0  0  0  0  0
    0.7486   -1.6636    0.9579 H   0  0  0  0  0  0  0  0  0  0  0  0
    0.9920    0.0903    0.3551 H   0  0  0  0  0  0  0  0  0  0  0  0
    2.1110   -2.5929    2.2359 H   0  0  0  0  0  0  0  0  0  0  0  0
    2.2869   -4.6927    2.8967 H   0  0  0  0  0  0  0  0  0  0  0  0
    4.1919   -3.8711    4.0173 H   0  0  0  0  0  0  0  0  0  0  0  0
    5.1546   -3.7485    2.5377 H   0  0  0  0  0  0  0  0  0  0  0  0
    5.9760   -5.6771    3.8125 H   0  0  0  0  0  0  0  0  0  0  0  0
    4.3358   -6.3725    3.9197 H   0  0  0  0  0  0  0  0  0  0  0  0
    4.7938   -8.5966    1.1743 H   0  0  0  0  0  0  0  0  0  0  0  0
    2.7479   -9.5395    0.1817 H   0  0  0  0  0  0  0  0  0  0  0  0
    1.2850   -8.2687   -1.2757 H   0  0  0  0  0  0  0  0  0  0  0  0
    1.7481   -5.9505   -1.9078 H   0  0  0  0  0  0  0  0  0  0  0  0
    3.4750   -6.2314   -1.5572 H   0  0  0  0  0  0  0  0  0  0  0  0
    4.7943   -3.9233    0.2433 H   0  0  0  0  0  0  0  0  0  0  0  0
    7.6096   -4.7636   -3.3404 H   0  0  0  0  0  0  0  0  0  0  0  0
    8.8739   -4.5047   -2.1109 H   0  0  0  0  0  0  0  0  0  0  0  0
    8.4116   -2.8173   -4.6436 H   0  0  0  0  0  0  0  0  0  0  0  0
    9.8252   -3.8589   -4.2903 H   0  0  0  0  0  0  0  0  0  0  0  0
    8.2177   -0.7476   -3.3019 H   0  0  0  0  0  0  0  0  0  0  0  0
    9.4999   -0.4765   -2.0801 H   0  0  0  0  0  0  0  0  0  0  0  0
    7.3129   -1.2689   -1.0410 H   0  0  0  0  0  0  0  0  0  0  0  0
    8.6856   -2.3529   -0.7244 H   0  0  0  0  0  0  0  0  0  0  0  0
    5.4170   -1.1769   -2.9104 H   0  0  0  0  0  0  0  0  0  0  0  0
    2.9225   -0.4094   -2.2207 H   0  0  0  0  0  0  0  0  0  0  0  0
    4.2540    0.7157   -2.0138 H   0  0  0  0  0  0  0  0  0  0  0  0
    4.2903   -0.4617    2.3584 H   0  0  0  0  0  0  0  0  0  0  0  0
    5.4351    0.8715    2.4334 H   0  0  0  0  0  0  0  0  0  0  0  0
    5.7239   -1.4992    0.9324 H   0  0  0  0  0  0  0  0  0  0  0  0
    2.5942    2.1423   -0.9440 H   0  0  0  0  0  0  0  0  0  0  0  0
    4.0032    3.0200   -1.5958 H   0  0  0  0  0  0  0  0  0  0  0  0
    3.0693    3.7308   -0.2782 H   0  0  0  0  0  0  0  0  0  0  0  0
    6.0241    2.5844    1.6861 H   0  0  0  0  0  0  0  0  0  0  0  0
    4.6961    3.7747    1.7060 H   0  0  0  0  0  0  0  0  0  0  0  0
    5.7932    3.6942    0.3251 H   0  0  0  0  0  0  0  0  0  0  0  0
  1  2  2  0
  1 36  1  0
  1 37  1  0
  2  3  1  0
  2 29  1  0
  3  4  1  0
  3 17  2  0
  4  5  1  0
  4 38  1  0
  5  6  1  0
  5 16  1  0
  5 39  1  1
  6  7  1  0
  6 40  1  0
  6 41  1  0
  7  8  1  0
  7 42  1  0
  7 43  1  0
  8  9  1  0
  9 10  2  0
  9 16  1  0
 10 11  1  0
 10 44  1  0
 11 12  2  0
 11 45  1  0
 12 13  1  0
 12 46  1  0
 13 14  1  0
 13 47  1  0
 13 48  1  0
 14 15  1  0
 14 16  2  0
 17 18  1  0
 17 49  1  0
 18 19  1  0
 18 27  2  0
 19 20  2  0
 19 21  1  0
 21 22  1  0
 21 26  1  0
 22 23  1  0
 22 50  1  0
 22 51  1  0
 23 24  1  0
 23 52  1  0
 23 53  1  0
 24 25  1  0
 25 26  1  0
 25 54  1  0
 25 55  1  0
 26 56  1  0
 26 57  1  0
 27 28  1  0
 27 58  1  0
 28 29  1  0
 28 59  1  0
 28 60  1  0
 29 30  1  0
 30 31  1  0
 30 33  2  0
 31 32  1  0
 31 61  1  0
 31 62  1  0
 32 63  1  0
 33 34  1  0
 33 35  1  0
 34 64  1  0
 34 65  1  0
 34 66  1  0
 35 67  1  0
 35 68  1  0
 35 69  1  0
M  END

