
     RDKit          3D

 31 32  0  0  0  0  0  0  0  0999 V2000
    4.2922    0.0213    1.1829 C   0  0  0  0  0  0  0  0  0  0  0  0
    3.3216    0.8198    0.5479 O   0  0  0  0  0  0  0  0  0  0  0  0
    3.5548    1.2730   -0.7122 C   0  0  0  0  0  0  0  0  0  0  0  0
    4.7124    0.9976   -1.4567 C   0  0  0  0  0  0  0  0  0  0  0  0
    4.8489    1.5166   -2.7487 C   0  0  0  0  0  0  0  0  0  0  0  0
    3.8510    2.3102   -3.3275 C   0  0  0  0  0  0  0  0  0  0  0  0
    4.0340    2.8970   -4.7126 C   0  0  0  0  0  0  0  0  0  0  0  0
    4.6900    1.9669   -5.6158 N   0  0  0  0  0  0  0  0  0  0  0  0
    5.0196    2.5116   -6.9233 C   0  0  0  0  0  0  0  0  0  0  0  0
    5.7411    1.5089   -7.7766 C   0  0  0  0  0  0  0  0  0  0  0  0
    4.9340    0.6382   -9.0507 S   0  0  0  0  0  0  0  0  0  0  0  0
    6.3513   -0.2775   -9.4267 C   0  0  0  0  0  0  0  0  0  0  0  0
    7.4026    0.0592   -8.6149 C   0  0  0  0  0  0  0  0  0  0  0  0
    7.0434    1.0737   -7.6754 C   0  0  0  0  0  0  0  0  0  0  0  0
    8.1716    1.7106   -6.5135 Cl  0  0  0  0  0  0  0  0  0  0  0  0
    2.6953    2.5696   -2.5723 C   0  0  0  0  0  0  0  0  0  0  0  0
    2.5447    2.0650   -1.2837 C   0  0  0  0  0  0  0  0  0  0  0  0
    3.8970   -0.2217    2.1787 H   0  0  0  0  0  0  0  0  0  0  0  0
    5.2533    0.5544    1.3015 H   0  0  0  0  0  0  0  0  0  0  0  0
    4.4773   -0.9202    0.6339 H   0  0  0  0  0  0  0  0  0  0  0  0
    5.5123    0.3823   -1.0437 H   0  0  0  0  0  0  0  0  0  0  0  0
    5.7458    1.2968   -3.3323 H   0  0  0  0  0  0  0  0  0  0  0  0
    4.6749    3.7979   -4.6495 H   0  0  0  0  0  0  0  0  0  0  0  0
    3.0503    3.2612   -5.0877 H   0  0  0  0  0  0  0  0  0  0  0  0
    4.1440    1.1111   -5.7095 H   0  0  0  0  0  0  0  0  0  0  0  0
    5.6856    3.3792   -6.7696 H   0  0  0  0  0  0  0  0  0  0  0  0
    4.1360    2.8969   -7.4808 H   0  0  0  0  0  0  0  0  0  0  0  0
    6.3348   -1.0090  -10.2333 H   0  0  0  0  0  0  0  0  0  0  0  0
    8.3971   -0.3830   -8.6721 H   0  0  0  0  0  0  0  0  0  0  0  0
    1.8945    3.1787   -3.0029 H   0  0  0  0  0  0  0  0  0  0  0  0
    1.6462    2.2640   -0.6958 H   0  0  0  0  0  0  0  0  0  0  0  0
  1  2  1  0
  1 18  1  0
  1 19  1  0
  1 20  1  0
  2  3  1  0
  3  4  2  0
  3 17  1  0
  4  5  1  0
  4 21  1  0
  5  6  2  0
  5 22  1  0
  6  7  1  0
  6 16  1  0
  7  8  1  0
  7 23  1  0
  7 24  1  0
  8  9  1  0
  8 25  1  0
  9 10  1  0
  9 26  1  0
  9 27  1  0
 10 11  1  0
 10 14  2  0
 11 12  1  0
 12 13  2  0
 12 28  1  0
 13 14  1  0
 13 29  1  0
 14 15  1  0
 16 17  2  0
 16 30  1  0
 17 31  1  0
M  END

