
     RDKit          3D

 57 61  0  0  0  0  0  0  0  0999 V2000
    1.2652   -1.0231   -0.1092 C   0  0  0  0  0  0  0  0  0  0  0  0
    2.5982   -0.3098    0.1367 C   0  0  2  0  0  0  0  0  0  0  0  0
    3.7777   -1.1425   -0.3793 C   0  0  0  0  0  0  0  0  0  0  0  0
    2.7669    0.0722    1.6194 C   0  0  0  0  0  0  0  0  0  0  0  0
    3.6514    1.2291    1.7094 N   0  0  0  0  0  0  0  0  0  0  0  0
    4.4901    1.5302    2.7720 C   0  0  0  0  0  0  0  0  0  0  0  0
    5.3093    2.4344    2.6915 O   0  0  0  0  0  0  0  0  0  0  0  0
    4.3089    0.7484    3.8979 N   0  0  0  0  0  0  0  0  0  0  0  0
    5.0347    0.7659    5.1062 C   0  0  0  0  0  0  0  0  0  0  0  0
    6.1540    1.5846    5.3384 C   0  0  0  0  0  0  0  0  0  0  0  0
    6.8115    1.5189    6.5697 C   0  0  0  0  0  0  0  0  0  0  0  0
    6.3802    0.6566    7.5809 C   0  0  0  0  0  0  0  0  0  0  0  0
    5.2662   -0.1557    7.3490 C   0  0  0  0  0  0  0  0  0  0  0  0
    4.6004   -0.1031    6.1254 C   0  0  0  0  0  0  0  0  0  0  0  0
    3.6828    2.1333    0.5612 C   0  0  2  0  0  0  0  0  0  0  0  0
    2.5293    1.3636   -0.6761 S   0  0  0  0  0  0  0  0  0  0  0  0
    5.1130    2.2719   -0.0584 C   0  0  0  0  0  0  0  0  0  0  0  0
    5.8721    1.3720   -0.3387 O   0  0  0  0  0  0  0  0  0  0  0  0
    5.3328    3.6166   -0.2858 N   0  0  0  0  0  0  0  0  0  0  0  0
    6.5340    4.1138   -0.9285 C   0  0  0  0  0  0  0  0  0  0  0  0
    7.4627    4.9189   -0.0335 C   0  0  0  0  0  0  0  0  0  0  0  0
    7.5856    4.6384    1.3355 C   0  0  0  0  0  0  0  0  0  0  0  0
    8.4862    5.3630    2.1221 C   0  0  0  0  0  0  0  0  0  0  0  0
    9.2746    6.3695    1.5561 C   0  0  0  0  0  0  0  0  0  0  0  0
    9.1539    6.6552    0.1931 C   0  0  0  0  0  0  0  0  0  0  0  0
    8.2496    5.9362   -0.5935 C   0  0  0  0  0  0  0  0  0  0  0  0
    4.2847    4.3993    0.2225 C   0  0  0  0  0  0  0  0  0  0  0  0
    4.1615    5.7877    0.2271 C   0  0  0  0  0  0  0  0  0  0  0  0
    3.0115    6.3403    0.8104 C   0  0  0  0  0  0  0  0  0  0  0  0
    2.0169    5.5307    1.3681 C   0  0  0  0  0  0  0  0  0  0  0  0
    2.1510    4.1339    1.3451 C   0  0  0  0  0  0  0  0  0  0  0  0
    3.2884    3.5775    0.7769 C   0  0  0  0  0  0  0  0  0  0  0  0
    1.2518   -1.9890    0.4235 H   0  0  0  0  0  0  0  0  0  0  0  0
    1.1273   -1.2381   -1.1801 H   0  0  0  0  0  0  0  0  0  0  0  0
    0.4107   -0.4209    0.2346 H   0  0  0  0  0  0  0  0  0  0  0  0
    3.7914   -2.1261    0.1233 H   0  0  0  0  0  0  0  0  0  0  0  0
    4.7349   -0.6325   -0.2060 H   0  0  0  0  0  0  0  0  0  0  0  0
    3.6795   -1.3145   -1.4617 H   0  0  0  0  0  0  0  0  0  0  0  0
    3.2130   -0.7793    2.1588 H   0  0  0  0  0  0  0  0  0  0  0  0
    1.7762    0.2847    2.0646 H   0  0  0  0  0  0  0  0  0  0  0  0
    3.5152    0.1223    3.9015 H   0  0  0  0  0  0  0  0  0  0  0  0
    6.4904    2.2627    4.5588 H   0  0  0  0  0  0  0  0  0  0  0  0
    7.6806    2.1610    6.7360 H   0  0  0  0  0  0  0  0  0  0  0  0
    6.9044    0.6174    8.5385 H   0  0  0  0  0  0  0  0  0  0  0  0
    4.9097   -0.8383    8.1247 H   0  0  0  0  0  0  0  0  0  0  0  0
    3.7306   -0.7455    5.9537 H   0  0  0  0  0  0  0  0  0  0  0  0
    6.2531    4.7156   -1.8102 H   0  0  0  0  0  0  0  0  0  0  0  0
    7.0562    3.2165   -1.2982 H   0  0  0  0  0  0  0  0  0  0  0  0
    6.9666    3.8611    1.7895 H   0  0  0  0  0  0  0  0  0  0  0  0
    8.5699    5.1382    3.1887 H   0  0  0  0  0  0  0  0  0  0  0  0
    9.9771    6.9331    2.1756 H   0  0  0  0  0  0  0  0  0  0  0  0
    9.7607    7.4441   -0.2593 H   0  0  0  0  0  0  0  0  0  0  0  0
    8.1556    6.1690   -1.6590 H   0  0  0  0  0  0  0  0  0  0  0  0
    4.9394    6.4277   -0.1909 H   0  0  0  0  0  0  0  0  0  0  0  0
    2.8968    7.4271    0.8298 H   0  0  0  0  0  0  0  0  0  0  0  0
    1.1315    5.9861    1.8174 H   0  0  0  0  0  0  0  0  0  0  0  0
    1.3696    3.4919    1.7592 H   0  0  0  0  0  0  0  0  0  0  0  0
  2  1  1  1
  1 33  1  0
  1 34  1  0
  1 35  1  0
  2  3  1  0
  2  4  1  0
  2 16  1  0
  3 36  1  0
  3 37  1  0
  3 38  1  0
  4  5  1  0
  4 39  1  0
  4 40  1  0
  5  6  1  0
  5 15  1  0
  6  7  2  0
  6  8  1  0
  8  9  1  0
  8 41  1  0
  9 10  2  0
  9 14  1  0
 10 11  1  0
 10 42  1  0
 11 12  2  0
 11 43  1  0
 12 13  1  0
 12 44  1  0
 13 14  2  0
 13 45  1  0
 14 46  1  0
 15 16  1  6
 15 17  1  0
 15 32  1  0
 17 18  2  0
 17 19  1  0
 19 20  1  0
 19 27  1  0
 20 21  1  0
 20 47  1  0
 20 48  1  0
 21 22  2  0
 21 26  1  0
 22 23  1  0
 22 49  1  0
 23 24  2  0
 23 50  1  0
 24 25  1  0
 24 51  1  0
 25 26  2  0
 25 52  1  0
 26 53  1  0
 27 28  1  0
 27 32  2  0
 28 29  2  0
 28 54  1  0
 29 30  1  0
 29 55  1  0
 30 31  2  0
 30 56  1  0
 31 32  1  0
 31 57  1  0
M  END

