
     RDKit          3D

 44 47  0  0  0  0  0  0  0  0999 V2000
    0.7867    1.3225    0.0000 C   0  0  0  0  0  0  0  0  0  0  0  0
    2.2221    1.0756   -0.1084 N   0  0  0  0  0  0  0  0  0  0  0  0
    2.8037    1.1715   -1.4537 C   0  0  0  0  0  0  0  0  0  0  0  0
    2.5527   -0.0785   -2.2528 C   0  0  0  0  0  0  0  0  0  0  0  0
    1.4768   -0.3049   -2.9473 N   0  0  0  0  0  0  0  0  0  0  0  0
    1.4908   -1.5525   -3.5257 C   0  0  0  0  0  0  0  0  0  0  0  0
    2.6102   -2.3120   -3.2756 C   0  0  0  0  0  0  0  0  0  0  0  0
    3.6980   -1.4133   -2.2577 S   0  0  0  0  0  0  0  0  0  0  0  0
    2.8541   -3.6961   -3.8080 C   0  0  0  0  0  0  0  0  0  0  0  0
    1.8785   -3.9957   -4.9608 C   0  0  0  0  0  0  0  0  0  0  0  0
    0.4473   -3.5534   -4.6250 C   0  0  0  0  0  0  0  0  0  0  0  0
    0.3601   -2.0367   -4.3935 C   0  0  0  0  0  0  0  0  0  0  0  0
    3.1636    1.6130    1.1924 S   0  0  1  0  0  0  0  0  0  0  0  0
    4.5611    1.5226    0.7557 O   0  0  0  0  0  0  0  0  0  0  0  0
    2.6265    2.8681    1.7306 O   0  0  0  0  0  0  0  0  0  0  0  0
    2.8735    0.3392    2.4276 C   0  0  0  0  0  0  0  0  0  0  0  0
    3.2677   -0.9779    2.1552 C   0  0  0  0  0  0  0  0  0  0  0  0
    3.0960   -1.9612    3.1315 C   0  0  0  0  0  0  0  0  0  0  0  0
    2.5372   -1.6019    4.3613 C   0  0  0  0  0  0  0  0  0  0  0  0
    2.1538   -0.2839    4.6195 C   0  0  0  0  0  0  0  0  0  0  0  0
    2.3184    0.7110    3.6554 C   0  0  0  0  0  0  0  0  0  0  0  0
    1.6012   -0.2094    6.0199 C   0  0  0  0  0  0  0  0  0  0  0  0
    1.6164   -1.5474    6.5013 O   0  0  0  0  0  0  0  0  0  0  0  0
    2.2453   -2.4316    5.5843 C   0  0  0  0  0  0  0  0  0  0  0  0
    0.2809    0.7368   -0.7807 H   0  0  0  0  0  0  0  0  0  0  0  0
    0.5331    2.3903   -0.1271 H   0  0  0  0  0  0  0  0  0  0  0  0
    0.4155    0.9869    0.9794 H   0  0  0  0  0  0  0  0  0  0  0  0
    3.8809    1.3495   -1.3457 H   0  0  0  0  0  0  0  0  0  0  0  0
    2.3654    2.0223   -2.0053 H   0  0  0  0  0  0  0  0  0  0  0  0
    2.7186   -4.4379   -2.9986 H   0  0  0  0  0  0  0  0  0  0  0  0
    3.8969   -3.8079   -4.1493 H   0  0  0  0  0  0  0  0  0  0  0  0
    1.9050   -5.0721   -5.1950 H   0  0  0  0  0  0  0  0  0  0  0  0
    2.2177   -3.4669   -5.8693 H   0  0  0  0  0  0  0  0  0  0  0  0
    0.1110   -4.0825   -3.7150 H   0  0  0  0  0  0  0  0  0  0  0  0
   -0.2426   -3.8507   -5.4309 H   0  0  0  0  0  0  0  0  0  0  0  0
   -0.6006   -1.7602   -3.9291 H   0  0  0  0  0  0  0  0  0  0  0  0
    0.3917   -1.4993   -5.3596 H   0  0  0  0  0  0  0  0  0  0  0  0
    3.6971   -1.2271    1.1831 H   0  0  0  0  0  0  0  0  0  0  0  0
    3.3981   -2.9919    2.9280 H   0  0  0  0  0  0  0  0  0  0  0  0
    2.0355    1.7517    3.8251 H   0  0  0  0  0  0  0  0  0  0  0  0
    0.5677    0.1850    6.0460 H   0  0  0  0  0  0  0  0  0  0  0  0
    2.2169    0.4447    6.6695 H   0  0  0  0  0  0  0  0  0  0  0  0
    1.5735   -3.2834    5.3642 H   0  0  0  0  0  0  0  0  0  0  0  0
    3.1727   -2.8535    6.0222 H   0  0  0  0  0  0  0  0  0  0  0  0
  1  2  1  0
  1 25  1  0
  1 26  1  0
  1 27  1  0
  2  3  1  0
 13  2  1  6
  3  4  1  0
  3 28  1  0
  3 29  1  0
  4  5  2  0
  4  8  1  0
  5  6  1  0
  6  7  2  0
  6 12  1  0
  7  8  1  0
  7  9  1  0
  9 10  1  0
  9 30  1  0
  9 31  1  0
 10 11  1  0
 10 32  1  0
 10 33  1  0
 11 12  1  0
 11 34  1  0
 11 35  1  0
 12 36  1  0
 12 37  1  0
 13 14  2  0
 13 15  2  0
 13 16  1  0
 16 17  2  0
 16 21  1  0
 17 18  1  0
 17 38  1  0
 18 19  2  0
 18 39  1  0
 19 20  1  0
 19 24  1  0
 20 21  2  0
 20 22  1  0
 21 40  1  0
 22 23  1  0
 22 41  1  0
 22 42  1  0
 23 24  1  0
 24 43  1  0
 24 44  1  0
M  END

