
     RDKit          3D

 38 39  0  0  0  0  0  0  0  0999 V2000
    1.1483   -0.8701   -0.6806 C   0  0  0  0  0  0  0  0  0  0  0  0
    2.5857   -0.6531   -0.2346 C   0  0  0  0  0  0  0  0  0  0  0  0
    3.4519   -1.4808   -0.4592 O   0  0  0  0  0  0  0  0  0  0  0  0
    2.8710    0.5185    0.4556 N   0  0  0  0  0  0  0  0  0  0  0  0
    1.9422    1.6231    0.6089 C   0  0  0  0  0  0  0  0  0  0  0  0
    1.2657    1.7850    1.9847 C   0  0  0  0  0  0  0  0  0  0  0  0
    0.6294    2.7937    2.2252 O   0  0  0  0  0  0  0  0  0  0  0  0
    1.4317    0.7244    2.8343 N   0  0  0  0  0  0  0  0  0  0  0  0
    0.9378    0.5485    4.1423 C   0  0  0  0  0  0  0  0  0  0  0  0
    0.1366    1.5020    4.7949 C   0  0  0  0  0  0  0  0  0  0  0  0
   -0.3163    1.2583    6.0926 C   0  0  0  0  0  0  0  0  0  0  0  0
    0.0210    0.0717    6.7479 C   0  0  0  0  0  0  0  0  0  0  0  0
   -0.5524   -0.2228    8.3737 Cl  0  0  0  0  0  0  0  0  0  0  0  0
    0.8162   -0.8836    6.1084 C   0  0  0  0  0  0  0  0  0  0  0  0
    1.2696   -0.6420    4.8134 C   0  0  0  0  0  0  0  0  0  0  0  0
    4.2650    0.7604    0.8638 C   0  0  0  0  0  0  0  0  0  0  0  0
    5.0466    1.6297   -0.1009 C   0  0  0  0  0  0  0  0  0  0  0  0
    5.3870    2.9530    0.2033 C   0  0  0  0  0  0  0  0  0  0  0  0
    6.0975    3.7094   -0.7319 C   0  0  0  0  0  0  0  0  0  0  0  0
    6.4431    3.1086   -1.9447 C   0  0  0  0  0  0  0  0  0  0  0  0
    6.1328    1.8450   -2.2503 N   0  0  0  0  0  0  0  0  0  0  0  0
    5.4562    1.1296   -1.3519 C   0  0  0  0  0  0  0  0  0  0  0  0
    1.0661   -1.9063   -1.0295 H   0  0  0  0  0  0  0  0  0  0  0  0
    0.8921   -0.2006   -1.5178 H   0  0  0  0  0  0  0  0  0  0  0  0
    0.4205   -0.6943    0.1257 H   0  0  0  0  0  0  0  0  0  0  0  0
    1.1320    1.5673   -0.1304 H   0  0  0  0  0  0  0  0  0  0  0  0
    2.4538    2.5776    0.4073 H   0  0  0  0  0  0  0  0  0  0  0  0
    2.0033   -0.0307    2.4682 H   0  0  0  0  0  0  0  0  0  0  0  0
   -0.1230    2.4240    4.2794 H   0  0  0  0  0  0  0  0  0  0  0  0
   -0.9381    1.9979    6.6001 H   0  0  0  0  0  0  0  0  0  0  0  0
    1.0776   -1.8096    6.6229 H   0  0  0  0  0  0  0  0  0  0  0  0
    1.8916   -1.3921    4.3160 H   0  0  0  0  0  0  0  0  0  0  0  0
    4.7405   -0.2249    0.9527 H   0  0  0  0  0  0  0  0  0  0  0  0
    4.2543    1.2316    1.8598 H   0  0  0  0  0  0  0  0  0  0  0  0
    5.1061    3.3877    1.1679 H   0  0  0  0  0  0  0  0  0  0  0  0
    6.3793    4.7444   -0.5249 H   0  0  0  0  0  0  0  0  0  0  0  0
    6.9998    3.6734   -2.7022 H   0  0  0  0  0  0  0  0  0  0  0  0
    5.2196    0.0928   -1.6189 H   0  0  0  0  0  0  0  0  0  0  0  0
  1  2  1  0
  1 23  1  0
  1 24  1  0
  1 25  1  0
  2  3  2  0
  2  4  1  0
  4  5  1  0
  4 16  1  0
  5  6  1  0
  5 26  1  0
  5 27  1  0
  6  7  2  0
  6  8  1  0
  8  9  1  0
  8 28  1  0
  9 10  2  0
  9 15  1  0
 10 11  1  0
 10 29  1  0
 11 12  2  0
 11 30  1  0
 12 13  1  0
 12 14  1  0
 14 15  2  0
 14 31  1  0
 15 32  1  0
 16 17  1  0
 16 33  1  0
 16 34  1  0
 17 18  2  0
 17 22  1  0
 18 19  1  0
 18 35  1  0
 19 20  2  0
 19 36  1  0
 20 21  1  0
 20 37  1  0
 21 22  2  0
 22 38  1  0
M  END

