
     RDKit          3D

 42 42  0  0  0  0  0  0  0  0999 V2000
    2.1295   -0.7682    0.5126 C   0  0  0  0  0  0  0  0  0  0  0  0
    3.6374   -0.9500    0.5355 C   0  0  0  0  0  0  0  0  0  0  0  0
    4.1539   -1.3351   -0.7562 O   0  0  0  0  0  0  0  0  0  0  0  0
    4.4654   -0.3518   -1.6238 C   0  0  0  0  0  0  0  0  0  0  0  0
    4.2822    0.8206   -1.3985 O   0  0  0  0  0  0  0  0  0  0  0  0
    5.0771   -0.9020   -2.9095 C   0  0  1  0  0  0  0  0  0  0  0  0
    4.4853   -0.1168   -4.1020 C   0  0  0  0  0  0  0  0  0  0  0  0
    5.1489    0.6367   -4.7892 O   0  0  0  0  0  0  0  0  0  0  0  0
    3.1380   -0.3112   -4.3711 N   0  0  0  0  0  0  0  0  0  0  0  0
    2.2148   -1.1369   -3.5979 C   0  0  0  0  0  0  0  0  0  0  0  0
    2.5415    0.5037   -5.3882 C   0  0  0  0  0  0  0  0  0  0  0  0
    2.5024    1.8982   -5.2760 C   0  0  0  0  0  0  0  0  0  0  0  0
    1.8804    2.6286   -6.2870 C   0  0  0  0  0  0  0  0  0  0  0  0
    1.3147    1.9382   -7.3647 C   0  0  0  0  0  0  0  0  0  0  0  0
    1.3483    0.6090   -7.4790 N   0  0  0  0  0  0  0  0  0  0  0  0
    1.9555   -0.0857   -6.5164 C   0  0  0  0  0  0  0  0  0  0  0  0
    6.6540   -0.9275   -2.8505 C   0  0  1  0  0  0  0  0  0  0  0  0
    7.0866   -1.8381   -1.6817 C   0  0  0  0  0  0  0  0  0  0  0  0
    7.1865   -1.5462   -4.1596 C   0  0  0  0  0  0  0  0  0  0  0  0
    7.2633    0.4720   -2.6416 C   0  0  0  0  0  0  0  0  0  0  0  0
    1.7655   -0.5526    1.5299 H   0  0  0  0  0  0  0  0  0  0  0  0
    1.6252   -1.6801    0.1561 H   0  0  0  0  0  0  0  0  0  0  0  0
    1.8459    0.0744   -0.1352 H   0  0  0  0  0  0  0  0  0  0  0  0
    3.9308   -1.7706    1.2058 H   0  0  0  0  0  0  0  0  0  0  0  0
    4.1394   -0.0254    0.8560 H   0  0  0  0  0  0  0  0  0  0  0  0
    4.7671   -1.9541   -2.9929 H   0  0  0  0  0  0  0  0  0  0  0  0
    2.7497   -1.8579   -2.9714 H   0  0  0  0  0  0  0  0  0  0  0  0
    1.5577   -1.7040   -4.2740 H   0  0  0  0  0  0  0  0  0  0  0  0
    1.5757   -0.5187   -2.9432 H   0  0  0  0  0  0  0  0  0  0  0  0
    2.9600    2.3892   -4.4150 H   0  0  0  0  0  0  0  0  0  0  0  0
    1.8310    3.7191   -6.2418 H   0  0  0  0  0  0  0  0  0  0  0  0
    0.8162    2.4875   -8.1722 H   0  0  0  0  0  0  0  0  0  0  0  0
    1.9880   -1.1757   -6.6370 H   0  0  0  0  0  0  0  0  0  0  0  0
    6.6486   -2.8464   -1.7626 H   0  0  0  0  0  0  0  0  0  0  0  0
    6.7992   -1.4271   -0.7021 H   0  0  0  0  0  0  0  0  0  0  0  0
    8.1828   -1.9461   -1.6849 H   0  0  0  0  0  0  0  0  0  0  0  0
    6.7698   -2.5549   -4.3226 H   0  0  0  0  0  0  0  0  0  0  0  0
    8.2823   -1.6475   -4.1044 H   0  0  0  0  0  0  0  0  0  0  0  0
    6.9438   -0.9215   -5.0285 H   0  0  0  0  0  0  0  0  0  0  0  0
    6.9153    0.9299   -1.7033 H   0  0  0  0  0  0  0  0  0  0  0  0
    7.0025    1.1440   -3.4678 H   0  0  0  0  0  0  0  0  0  0  0  0
    8.3612    0.3882   -2.5873 H   0  0  0  0  0  0  0  0  0  0  0  0
  1  2  1  0
  1 21  1  0
  1 22  1  0
  1 23  1  0
  2  3  1  0
  2 24  1  0
  2 25  1  0
  3  4  1  0
  4  5  2  0
  4  6  1  0
  6  7  1  0
  6 17  1  0
  6 26  1  6
  7  8  2  0
  7  9  1  0
  9 10  1  0
  9 11  1  0
 10 27  1  0
 10 28  1  0
 10 29  1  0
 11 12  2  0
 11 16  1  0
 12 13  1  0
 12 30  1  0
 13 14  2  0
 13 31  1  0
 14 15  1  0
 14 32  1  0
 15 16  2  0
 16 33  1  0
 17 18  1  1
 17 19  1  0
 17 20  1  0
 18 34  1  0
 18 35  1  0
 18 36  1  0
 19 37  1  0
 19 38  1  0
 19 39  1  0
 20 40  1  0
 20 41  1  0
 20 42  1  0
M  END

