
     RDKit          3D

 63 69  0  0  0  0  0  0  0  0999 V2000
    0.4477   -2.4083   -0.2399 C   0  0  0  0  0  0  0  0  0  0  0  0
    1.7048   -1.8162    0.4011 C   0  0  0  0  0  0  0  0  0  0  0  0
    2.5999   -1.1722   -0.5455 N   0  0  0  0  0  0  0  0  0  0  0  0
    2.5261    0.1575   -0.9545 C   0  0  0  0  0  0  0  0  0  0  0  0
    1.6475    1.1677   -0.5422 C   0  0  0  0  0  0  0  0  0  0  0  0
    1.7992    2.4349   -1.1080 C   0  0  0  0  0  0  0  0  0  0  0  0
    2.7977    2.6962   -2.0646 C   0  0  0  0  0  0  0  0  0  0  0  0
    3.6683    1.6870   -2.4759 C   0  0  0  0  0  0  0  0  0  0  0  0
    3.5382    0.4055   -1.9235 C   0  0  0  0  0  0  0  0  0  0  0  0
    4.2440   -0.8489   -2.1077 C   0  0  0  0  0  0  0  0  0  0  0  0
    5.3180   -1.2435   -2.9076 C   0  0  0  0  0  0  0  0  0  0  0  0
    5.7814   -2.5690   -2.8592 C   0  0  0  0  0  0  0  0  0  0  0  0
    6.9173   -3.0398   -3.6881 C   0  0  0  0  0  0  0  0  0  0  0  0
    7.6332   -2.2057   -4.5636 C   0  0  0  0  0  0  0  0  0  0  0  0
    8.6964   -2.7431   -5.3091 C   0  0  0  0  0  0  0  0  0  0  0  0
    9.5124   -1.9465   -6.2569 C   0  0  0  0  0  0  0  0  0  0  0  0
   10.5428   -2.5944   -6.9852 C   0  0  0  0  0  0  0  0  0  0  0  0
   11.3486   -1.9146   -7.8902 C   0  0  0  0  0  0  0  0  0  0  0  0
   11.1216   -0.5431   -8.0805 C   0  0  0  0  0  0  0  0  0  0  0  0
   10.0971    0.1349   -7.3584 C   0  0  0  0  0  0  0  0  0  0  0  0
    9.3009   -0.5717   -6.4551 C   0  0  0  0  0  0  0  0  0  0  0  0
   10.1424    1.5213   -7.7843 C   0  0  0  0  0  0  0  0  0  0  0  0
    9.4073    2.6674   -7.4518 C   0  0  0  0  0  0  0  0  0  0  0  0
    9.7219    3.8790   -8.0671 C   0  0  0  0  0  0  0  0  0  0  0  0
   10.7640    3.9543   -9.0098 C   0  0  0  0  0  0  0  0  0  0  0  0
   11.5120    2.8285   -9.3589 C   0  0  0  0  0  0  0  0  0  0  0  0
   11.1908    1.6124   -8.7421 C   0  0  0  0  0  0  0  0  0  0  0  0
   11.7625    0.3539   -8.9161 N   0  0  0  0  0  0  0  0  0  0  0  0
   12.8920    0.0507   -9.7788 C   0  0  0  0  0  0  0  0  0  0  0  0
   14.2531    0.2313   -9.1031 C   0  0  0  0  0  0  0  0  0  0  0  0
    9.0101   -4.0469   -5.1747 N   0  0  0  0  0  0  0  0  0  0  0  0
    8.2781   -4.7574   -4.3230 C   0  0  0  0  0  0  0  0  0  0  0  0
    8.6333   -6.1645   -4.1908 C   0  0  0  0  0  0  0  0  0  0  0  0
    8.9158   -7.2837   -4.0857 N   0  0  0  0  0  0  0  0  0  0  0  0
    7.2611   -4.3383   -3.5773 N   0  0  0  0  0  0  0  0  0  0  0  0
    5.1404   -3.4889   -1.9905 C   0  0  0  0  0  0  0  0  0  0  0  0
    4.0701   -3.1218   -1.1841 C   0  0  0  0  0  0  0  0  0  0  0  0
    3.6223   -1.7933   -1.2404 C   0  0  0  0  0  0  0  0  0  0  0  0
   -0.1870   -2.8784    0.5281 H   0  0  0  0  0  0  0  0  0  0  0  0
    0.7067   -3.1753   -0.9861 H   0  0  0  0  0  0  0  0  0  0  0  0
   -0.1452   -1.6300   -0.7447 H   0  0  0  0  0  0  0  0  0  0  0  0
    2.2744   -2.5993    0.9254 H   0  0  0  0  0  0  0  0  0  0  0  0
    1.4328   -1.0734    1.1677 H   0  0  0  0  0  0  0  0  0  0  0  0
    0.8642    0.9798    0.1945 H   0  0  0  0  0  0  0  0  0  0  0  0
    1.1254    3.2389   -0.8014 H   0  0  0  0  0  0  0  0  0  0  0  0
    2.8882    3.6989   -2.4887 H   0  0  0  0  0  0  0  0  0  0  0  0
    4.4417    1.8940   -3.2201 H   0  0  0  0  0  0  0  0  0  0  0  0
    5.7831   -0.5083   -3.5663 H   0  0  0  0  0  0  0  0  0  0  0  0
    7.3673   -1.1567   -4.6635 H   0  0  0  0  0  0  0  0  0  0  0  0
   10.6920   -3.6604   -6.8125 H   0  0  0  0  0  0  0  0  0  0  0  0
   12.1358   -2.4450   -8.4292 H   0  0  0  0  0  0  0  0  0  0  0  0
    8.5213   -0.0378   -5.9094 H   0  0  0  0  0  0  0  0  0  0  0  0
    8.5978    2.6136   -6.7192 H   0  0  0  0  0  0  0  0  0  0  0  0
    9.1570    4.7796   -7.8155 H   0  0  0  0  0  0  0  0  0  0  0  0
   10.9963    4.9140   -9.4783 H   0  0  0  0  0  0  0  0  0  0  0  0
   12.3210    2.9047  -10.0879 H   0  0  0  0  0  0  0  0  0  0  0  0
   12.8170    0.6921  -10.6712 H   0  0  0  0  0  0  0  0  0  0  0  0
   12.7749   -0.9839  -10.1374 H   0  0  0  0  0  0  0  0  0  0  0  0
   14.3935    1.2692   -8.7637 H   0  0  0  0  0  0  0  0  0  0  0  0
   15.0642   -0.0114   -9.8079 H   0  0  0  0  0  0  0  0  0  0  0  0
   14.3518   -0.4286   -8.2274 H   0  0  0  0  0  0  0  0  0  0  0  0
    5.5139   -4.5128   -1.9720 H   0  0  0  0  0  0  0  0  0  0  0  0
    3.5976   -3.8583   -0.5315 H   0  0  0  0  0  0  0  0  0  0  0  0
  1  2  1  0
  1 39  1  0
  1 40  1  0
  1 41  1  0
  2  3  1  0
  2 42  1  0
  2 43  1  0
  3  4  1  0
  3 38  1  0
  4  5  2  0
  4  9  1  0
  5  6  1  0
  5 44  1  0
  6  7  2  0
  6 45  1  0
  7  8  1  0
  7 46  1  0
  8  9  2  0
  8 47  1  0
  9 10  1  0
 10 11  1  0
 10 38  2  0
 11 12  2  0
 11 48  1  0
 12 13  1  0
 12 36  1  0
 13 14  2  0
 13 35  1  0
 14 15  1  0
 14 49  1  0
 15 16  1  0
 15 31  2  0
 16 17  2  0
 16 21  1  0
 17 18  1  0
 17 50  1  0
 18 19  2  0
 18 51  1  0
 19 20  1  0
 19 28  1  0
 20 21  2  0
 20 22  1  0
 21 52  1  0
 22 23  2  0
 22 27  1  0
 23 24  1  0
 23 53  1  0
 24 25  2  0
 24 54  1  0
 25 26  1  0
 25 55  1  0
 26 27  2  0
 26 56  1  0
 27 28  1  0
 28 29  1  0
 29 30  1  0
 29 57  1  0
 29 58  1  0
 30 59  1  0
 30 60  1  0
 30 61  1  0
 31 32  1  0
 32 33  1  0
 32 35  2  0
 33 34  3  0
 36 37  2  0
 36 62  1  0
 37 38  1  0
 37 63  1  0
M  END

