
     RDKit          3D

 42 43  0  0  0  0  0  0  0  0999 V2000
    0.4080    3.0996   -3.1458 C   0  0  0  0  0  0  0  0  0  0  0  0
    1.8758    3.1419   -3.5703 C   0  0  0  0  0  0  0  0  0  0  0  0
    2.8462    2.8818   -2.4188 C   0  0  0  0  0  0  0  0  0  0  0  0
    4.2281    2.8872   -2.8694 N   0  0  0  0  0  0  0  0  0  0  0  0
    5.2103    2.6371   -1.8306 C   0  0  0  0  0  0  0  0  0  0  0  0
    6.6228    2.5751   -2.3724 C   0  0  0  0  0  0  0  0  0  0  0  0
    7.7174    3.0497   -1.6420 C   0  0  0  0  0  0  0  0  0  0  0  0
    9.0071    2.9351   -2.1648 C   0  0  0  0  0  0  0  0  0  0  0  0
    9.1616    2.3458   -3.4237 C   0  0  0  0  0  0  0  0  0  0  0  0
   10.5062    2.1686   -4.0917 C   0  0  0  0  0  0  0  0  0  0  0  0
   11.5364    2.6601   -3.2610 O   0  0  0  0  0  0  0  0  0  0  0  0
   12.8295    2.5961   -3.6790 C   0  0  0  0  0  0  0  0  0  0  0  0
   13.2288    2.0620   -4.9107 C   0  0  0  0  0  0  0  0  0  0  0  0
   14.5837    2.0349   -5.2629 C   0  0  0  0  0  0  0  0  0  0  0  0
   15.5300    2.5431   -4.3784 C   0  0  0  0  0  0  0  0  0  0  0  0
   17.3828    2.5138   -4.8433 Br  0  0  0  0  0  0  0  0  0  0  0  0
   15.1360    3.0778   -3.1461 C   0  0  0  0  0  0  0  0  0  0  0  0
   13.7894    3.1139   -2.7769 C   0  0  0  0  0  0  0  0  0  0  0  0
   13.3456    3.6850   -1.4563 C   0  0  0  0  0  0  0  0  0  0  0  0
    8.1245    1.8955   -4.1389 N   0  0  0  0  0  0  0  0  0  0  0  0
    6.8990    2.0076   -3.6287 C   0  0  0  0  0  0  0  0  0  0  0  0
   -0.2612    3.2959   -3.9981 H   0  0  0  0  0  0  0  0  0  0  0  0
    0.1885    3.8534   -2.3712 H   0  0  0  0  0  0  0  0  0  0  0  0
    0.1378    2.1133   -2.7327 H   0  0  0  0  0  0  0  0  0  0  0  0
    2.1025    4.1289   -4.0151 H   0  0  0  0  0  0  0  0  0  0  0  0
    2.0698    2.3990   -4.3624 H   0  0  0  0  0  0  0  0  0  0  0  0
    2.6342    1.8897   -1.9786 H   0  0  0  0  0  0  0  0  0  0  0  0
    2.6558    3.6190   -1.6031 H   0  0  0  0  0  0  0  0  0  0  0  0
    4.4411    3.7657   -3.3430 H   0  0  0  0  0  0  0  0  0  0  0  0
    4.9617    1.6640   -1.3646 H   0  0  0  0  0  0  0  0  0  0  0  0
    5.1766    3.3767   -0.9975 H   0  0  0  0  0  0  0  0  0  0  0  0
    7.5629    3.5127   -0.6623 H   0  0  0  0  0  0  0  0  0  0  0  0
    9.8782    3.2964   -1.6189 H   0  0  0  0  0  0  0  0  0  0  0  0
   10.4948    2.6983   -5.0629 H   0  0  0  0  0  0  0  0  0  0  0  0
   10.6541    1.0948   -4.3131 H   0  0  0  0  0  0  0  0  0  0  0  0
   12.4963    1.6610   -5.6109 H   0  0  0  0  0  0  0  0  0  0  0  0
   14.8898    1.6177   -6.2235 H   0  0  0  0  0  0  0  0  0  0  0  0
   15.8893    3.4731   -2.4617 H   0  0  0  0  0  0  0  0  0  0  0  0
   14.2036    4.0448   -0.8709 H   0  0  0  0  0  0  0  0  0  0  0  0
   12.8079    2.9312   -0.8578 H   0  0  0  0  0  0  0  0  0  0  0  0
   12.6470    4.5256   -1.6015 H   0  0  0  0  0  0  0  0  0  0  0  0
    6.0681    1.6401   -4.2399 H   0  0  0  0  0  0  0  0  0  0  0  0
  1  2  1  0
  1 22  1  0
  1 23  1  0
  1 24  1  0
  2  3  1  0
  2 25  1  0
  2 26  1  0
  3  4  1  0
  3 27  1  0
  3 28  1  0
  4  5  1  0
  4 29  1  0
  5  6  1  0
  5 30  1  0
  5 31  1  0
  6  7  2  0
  6 21  1  0
  7  8  1  0
  7 32  1  0
  8  9  2  0
  8 33  1  0
  9 10  1  0
  9 20  1  0
 10 11  1  0
 10 34  1  0
 10 35  1  0
 11 12  1  0
 12 13  2  0
 12 18  1  0
 13 14  1  0
 13 36  1  0
 14 15  2  0
 14 37  1  0
 15 16  1  0
 15 17  1  0
 17 18  2  0
 17 38  1  0
 18 19  1  0
 19 39  1  0
 19 40  1  0
 19 41  1  0
 20 21  2  0
 21 42  1  0
M  END

