
     RDKit          3D

 43 45  0  0  0  0  0  0  0  0999 V2000
   10.7263    7.0962   -1.8626 C   0  0  0  0  0  0  0  0  0  0  0  0
   10.7257    7.4062   -0.4835 O   0  0  0  0  0  0  0  0  0  0  0  0
   10.0215    6.6404    0.3749 C   0  0  0  0  0  0  0  0  0  0  0  0
    9.2566    5.5212   -0.0007 C   0  0  0  0  0  0  0  0  0  0  0  0
    8.5671    4.8008    0.9728 C   0  0  0  0  0  0  0  0  0  0  0  0
    8.6231    5.1691    2.3252 C   0  0  0  0  0  0  0  0  0  0  0  0
    7.8609    4.3518    3.2992 C   0  0  0  0  0  0  0  0  0  0  0  0
    7.1548    3.4133    3.0081 O   0  0  0  0  0  0  0  0  0  0  0  0
    8.0277    4.7733    4.5845 O   0  0  0  0  0  0  0  0  0  0  0  0
    7.3295    4.0445    5.6081 C   0  0  0  0  0  0  0  0  0  0  0  0
    8.1639    2.9587    6.2158 C   0  0  0  0  0  0  0  0  0  0  0  0
    8.0519    1.6035    6.0574 C   0  0  0  0  0  0  0  0  0  0  0  0
    7.0789    0.8076    5.2506 C   0  0  0  0  0  0  0  0  0  0  0  0
    9.1045    0.9537    6.8726 C   0  0  0  0  0  0  0  0  0  0  0  0
    9.3740   -0.2161    7.0110 O   0  0  0  0  0  0  0  0  0  0  0  0
    9.7760    2.0464    7.4879 N   0  0  0  0  0  0  0  0  0  0  0  0
   10.9530    2.3041    8.2527 C   0  0  0  0  0  0  0  0  0  0  0  0
   11.6796    1.4686    8.7367 O   0  0  0  0  0  0  0  0  0  0  0  0
   11.0289    3.7777    8.2889 C   0  0  0  0  0  0  0  0  0  0  0  0
   12.1196    4.4785    9.0298 C   0  0  0  0  0  0  0  0  0  0  0  0
    9.9770    4.2887    7.5759 C   0  0  0  0  0  0  0  0  0  0  0  0
    9.5955    5.7088    7.3192 C   0  0  0  0  0  0  0  0  0  0  0  0
    9.2082    3.2317    7.0958 N   0  0  0  0  0  0  0  0  0  0  0  0
    9.3910    6.2923    2.6913 C   0  0  0  0  0  0  0  0  0  0  0  0
   10.0800    7.0185    1.7314 C   0  0  0  0  0  0  0  0  0  0  0  0
   11.3614    7.8479   -2.3492 H   0  0  0  0  0  0  0  0  0  0  0  0
    9.7111    7.1504   -2.2937 H   0  0  0  0  0  0  0  0  0  0  0  0
   11.1452    6.0929   -2.0553 H   0  0  0  0  0  0  0  0  0  0  0  0
    9.1944    5.2069   -1.0424 H   0  0  0  0  0  0  0  0  0  0  0  0
    7.9693    3.9307    0.6945 H   0  0  0  0  0  0  0  0  0  0  0  0
    6.4220    3.5992    5.1841 H   0  0  0  0  0  0  0  0  0  0  0  0
    7.0469    4.7932    6.3604 H   0  0  0  0  0  0  0  0  0  0  0  0
    6.7524    1.3533    4.3543 H   0  0  0  0  0  0  0  0  0  0  0  0
    6.1882    0.5329    5.8428 H   0  0  0  0  0  0  0  0  0  0  0  0
    7.5543   -0.1355    4.9411 H   0  0  0  0  0  0  0  0  0  0  0  0
   13.1065    4.1141    8.7010 H   0  0  0  0  0  0  0  0  0  0  0  0
   12.0576    4.2748   10.1123 H   0  0  0  0  0  0  0  0  0  0  0  0
   12.0887    5.5682    8.8861 H   0  0  0  0  0  0  0  0  0  0  0  0
   10.3862    6.3791    7.6785 H   0  0  0  0  0  0  0  0  0  0  0  0
    8.6639    5.9762    7.8458 H   0  0  0  0  0  0  0  0  0  0  0  0
    9.4383    5.8927    6.2463 H   0  0  0  0  0  0  0  0  0  0  0  0
    9.4414    6.5954    3.7373 H   0  0  0  0  0  0  0  0  0  0  0  0
   10.6786    7.8914    1.9983 H   0  0  0  0  0  0  0  0  0  0  0  0
  1  2  1  0
  1 26  1  0
  1 27  1  0
  1 28  1  0
  2  3  1  0
  3  4  2  0
  3 25  1  0
  4  5  1  0
  4 29  1  0
  5  6  2  0
  5 30  1  0
  6  7  1  0
  6 24  1  0
  7  8  2  0
  7  9  1  0
  9 10  1  0
 10 11  1  0
 10 31  1  0
 10 32  1  0
 11 12  2  0
 11 23  1  0
 12 13  1  0
 12 14  1  0
 13 33  1  0
 13 34  1  0
 13 35  1  0
 14 15  2  0
 14 16  1  0
 16 17  1  0
 16 23  1  0
 17 18  2  0
 17 19  1  0
 19 20  1  0
 19 21  2  0
 20 36  1  0
 20 37  1  0
 20 38  1  0
 21 22  1  0
 21 23  1  0
 22 39  1  0
 22 40  1  0
 22 41  1  0
 24 25  2  0
 24 42  1  0
 25 43  1  0
M  END

