
     RDKit          3D

 37 37  0  0  0  0  0  0  0  0999 V2000
    4.8990   -3.1397    1.7264 C   0  0  0  0  0  0  0  0  0  0  0  0
    3.5408   -2.5309    2.1124 C   0  0  0  0  0  0  0  0  0  0  0  0
    3.5776   -1.0416    2.3267 C   0  0  0  0  0  0  0  0  0  0  0  0
    3.9115   -0.4063    3.9133 S   0  0  0  0  0  0  0  0  0  0  0  0
    3.8503    1.2399    3.3417 C   0  0  0  0  0  0  0  0  0  0  0  0
    4.0360    2.4482    4.1842 C   0  0  0  0  0  0  0  0  0  0  0  0
    4.0818    3.5669    3.6891 O   0  0  0  0  0  0  0  0  0  0  0  0
    4.1700    2.2363    5.5348 N   0  0  0  0  0  0  0  0  0  0  0  0
    4.2462    3.3378    6.4710 C   0  0  1  0  0  0  0  0  0  0  0  0
    4.0284    4.2524    5.8934 H   0  0  0  0  0  0  0  0  0  0  0  0
    3.1750    3.1061    7.5461 C   0  0  0  0  0  0  0  0  0  0  0  0
    2.8718    2.0076    7.9295 O   0  0  0  0  0  0  0  0  0  0  0  0
    2.6032    4.2039    8.0782 O   0  0  0  0  0  0  0  0  0  0  0  0
    5.6577    3.4879    7.1207 C   0  0  1  0  0  0  0  0  0  0  0  0
    6.7424    3.5863    6.0428 C   0  0  0  0  0  0  0  0  0  0  0  0
    5.7270    4.6834    8.0807 C   0  0  0  0  0  0  0  0  0  0  0  0
    3.5930    1.2671    1.9907 C   0  0  0  0  0  0  0  0  0  0  0  0
    3.4362   -0.0228    1.3986 C   0  0  0  0  0  0  0  0  0  0  0  0
    3.1678   -0.2231   -0.0697 C   0  0  0  0  0  0  0  0  0  0  0  0
    4.8137   -4.2293    1.5860 H   0  0  0  0  0  0  0  0  0  0  0  0
    5.6513   -2.9541    2.5090 H   0  0  0  0  0  0  0  0  0  0  0  0
    5.2790   -2.7041    0.7890 H   0  0  0  0  0  0  0  0  0  0  0  0
    3.1652   -3.0238    3.0244 H   0  0  0  0  0  0  0  0  0  0  0  0
    2.8014   -2.7531    1.3248 H   0  0  0  0  0  0  0  0  0  0  0  0
    3.9278    1.3369    5.9425 H   0  0  0  0  0  0  0  0  0  0  0  0
    2.9213    5.0013    7.6309 H   0  0  0  0  0  0  0  0  0  0  0  0
    5.8295    2.5657    7.7059 H   0  0  0  0  0  0  0  0  0  0  0  0
    6.5909    4.4716    5.4043 H   0  0  0  0  0  0  0  0  0  0  0  0
    6.7443    2.7008    5.3916 H   0  0  0  0  0  0  0  0  0  0  0  0
    7.7375    3.6657    6.5086 H   0  0  0  0  0  0  0  0  0  0  0  0
    5.5204    5.6303    7.5497 H   0  0  0  0  0  0  0  0  0  0  0  0
    6.7375    4.7710    8.5090 H   0  0  0  0  0  0  0  0  0  0  0  0
    5.0227    4.5986    8.9219 H   0  0  0  0  0  0  0  0  0  0  0  0
    3.5141    2.2113    1.4498 H   0  0  0  0  0  0  0  0  0  0  0  0
    2.4528    0.5259   -0.4449 H   0  0  0  0  0  0  0  0  0  0  0  0
    2.7535   -1.2191   -0.2839 H   0  0  0  0  0  0  0  0  0  0  0  0
    4.0905   -0.1160   -0.6659 H   0  0  0  0  0  0  0  0  0  0  0  0
  1  2  1  0
  1 20  1  0
  1 21  1  0
  1 22  1  0
  2  3  1  0
  2 23  1  0
  2 24  1  0
  3  4  2  0
  3 18  1  0
  4  5  1  0
  5  6  2  0
  5 17  1  0
  6  7  1  0
  6  8  1  0
  8  9  1  0
  8 25  1  0
  9 10  1  6
  9 11  1  0
  9 14  1  0
 11 12  2  0
 11 13  1  0
 13 26  1  0
 14 15  1  0
 14 16  1  0
 14 27  1  1
 15 28  1  0
 15 29  1  0
 15 30  1  0
 16 31  1  0
 16 32  1  0
 16 33  1  0
 17 18  2  0
 17 34  1  0
 18 19  1  0
 19 35  1  0
 19 36  1  0
 19 37  1  0
M  CHG  2   4   1   7  -1
M  END

