
     RDKit          3D

 25 26  0  0  0  0  0  0  0  0999 V2000
    1.2031    1.0409   -0.7936 O   0  0  0  0  0  0  0  0  0  0  0  0
    2.1334    0.4187   -0.3193 C   0  0  0  0  0  0  0  0  0  0  0  0
    2.5466   -0.8115   -0.7777 N   0  0  0  0  0  0  0  0  0  0  0  0
    2.0289   -1.5483   -1.8531 C   0  0  0  0  0  0  0  0  0  0  0  0
    0.9179   -1.1639   -2.6277 C   0  0  0  0  0  0  0  0  0  0  0  0
    0.5076   -1.9985   -3.6637 C   0  0  0  0  0  0  0  0  0  0  0  0
    1.2178   -3.1845   -3.8897 C   0  0  0  0  0  0  0  0  0  0  0  0
    0.7124   -4.2456   -5.1899 Cl  0  0  0  0  0  0  0  0  0  0  0  0
    2.2596   -3.5551   -3.1707 N   0  0  0  0  0  0  0  0  0  0  0  0
    2.6579   -2.7638   -2.1799 C   0  0  0  0  0  0  0  0  0  0  0  0
    2.9113    0.9552    0.8620 C   0  0  0  0  0  0  0  0  0  0  0  0
    2.2524    1.7091    1.8528 C   0  0  0  0  0  0  0  0  0  0  0  0
    0.9333    1.8480    1.8018 F   0  0  0  0  0  0  0  0  0  0  0  0
    2.9206    2.3053    2.9202 C   0  0  0  0  0  0  0  0  0  0  0  0
    4.3055    2.1574    3.0112 C   0  0  0  0  0  0  0  0  0  0  0  0
    5.2398    2.9666    4.4505 Br  0  0  0  0  0  0  0  0  0  0  0  0
    5.0151    1.4174    2.0631 C   0  0  0  0  0  0  0  0  0  0  0  0
    4.3008    0.8357    1.0216 C   0  0  0  0  0  0  0  0  0  0  0  0
    4.9974    0.1142    0.1242 F   0  0  0  0  0  0  0  0  0  0  0  0
    3.3677   -1.2118   -0.3385 H   0  0  0  0  0  0  0  0  0  0  0  0
    0.4011   -0.2314   -2.4123 H   0  0  0  0  0  0  0  0  0  0  0  0
   -0.3475   -1.7379   -4.2884 H   0  0  0  0  0  0  0  0  0  0  0  0
    3.5282   -3.1015   -1.6010 H   0  0  0  0  0  0  0  0  0  0  0  0
    2.3483    2.8685    3.6570 H   0  0  0  0  0  0  0  0  0  0  0  0
    6.0958    1.2874    2.1146 H   0  0  0  0  0  0  0  0  0  0  0  0
  1  2  2  0
  2  3  1  0
  2 11  1  0
  3  4  1  0
  3 20  1  0
  4  5  2  0
  4 10  1  0
  5  6  1  0
  5 21  1  0
  6  7  2  0
  6 22  1  0
  7  8  1  0
  7  9  1  0
  9 10  2  0
 10 23  1  0
 11 12  2  0
 11 18  1  0
 12 13  1  0
 12 14  1  0
 14 15  2  0
 14 24  1  0
 15 16  1  0
 15 17  1  0
 17 18  2  0
 17 25  1  0
 18 19  1  0
M  END

