
     RDKit          3D

 96103  0  0  0  0  0  0  0  0999 V2000
    0.2441    2.2298    0.0185 C   0  0  0  0  0  0  0  0  0  0  0  0
    1.0873    1.9502   -1.0743 O   0  0  0  0  0  0  0  0  0  0  0  0
    2.0602    2.8363   -1.4097 C   0  0  0  0  0  0  0  0  0  0  0  0
    2.3002    4.0427   -0.7340 C   0  0  0  0  0  0  0  0  0  0  0  0
    3.3435    4.8692   -1.1691 C   0  0  0  0  0  0  0  0  0  0  0  0
    4.1383    4.5154   -2.2562 C   0  0  0  0  0  0  0  0  0  0  0  0
    3.9016    3.3049   -2.9437 C   0  0  0  0  0  0  0  0  0  0  0  0
    4.7774    2.9161   -4.0697 C   0  0  0  0  0  0  0  0  0  0  0  0
    6.1612    3.0689   -4.1061 C   0  0  0  0  0  0  0  0  0  0  0  0
    6.6213    2.5333   -5.3331 C   0  0  0  0  0  0  0  0  0  0  0  0
    7.9230    2.4962   -5.8540 C   0  0  0  0  0  0  0  0  0  0  0  0
    9.0684    3.0116   -5.0392 C   0  0  0  0  0  0  0  0  0  0  0  0
    9.7265    2.1529   -4.1303 C   0  0  0  0  0  0  0  0  0  0  0  0
    9.2976    0.7139   -3.9624 C   0  0  0  0  0  0  0  0  0  0  0  0
   10.7949    2.6597   -3.3779 C   0  0  0  0  0  0  0  0  0  0  0  0
   11.2272    3.9857   -3.4994 C   0  0  0  0  0  0  0  0  0  0  0  0
   12.4015    4.4985   -2.7014 C   0  0  0  0  0  0  0  0  0  0  0  0
   10.5538    4.8159   -4.4043 C   0  0  0  0  0  0  0  0  0  0  0  0
    9.4821    4.3558   -5.1806 C   0  0  0  0  0  0  0  0  0  0  0  0
    8.7857    5.2911   -6.1413 C   0  0  0  0  0  0  0  0  0  0  0  0
    8.1557    1.9766   -7.1365 C   0  0  0  0  0  0  0  0  0  0  0  0
    9.3810    1.7822   -7.8179 C   0  0  0  0  0  0  0  0  0  0  0  0
    9.0945    1.1813   -9.0418 C   0  0  0  0  0  0  0  0  0  0  0  0
   10.0856    0.8391  -10.0844 C   0  0  0  0  0  0  0  0  0  0  0  0
   11.3289    0.2967   -9.7188 C   0  0  0  0  0  0  0  0  0  0  0  0
   12.2842    0.0056  -10.6992 C   0  0  0  0  0  0  0  0  0  0  0  0
   12.0202    0.2440  -12.0444 C   0  0  0  0  0  0  0  0  0  0  0  0
   10.7797    0.7885  -12.4239 C   0  0  0  0  0  0  0  0  0  0  0  0
   10.6025    0.9968  -13.7533 O   0  0  0  0  0  0  0  0  0  0  0  0
    9.3782    1.5252  -14.2146 C   0  0  0  0  0  0  0  0  0  0  0  0
    9.8208    1.0865  -11.4470 C   0  0  0  0  0  0  0  0  0  0  0  0
    7.6665    1.0144   -9.0828 C   0  0  0  0  0  0  0  0  0  0  0  0
    6.8976    0.3458  -10.1561 C   0  0  0  0  0  0  0  0  0  0  0  0
    5.8114    0.9619  -10.7951 C   0  0  0  0  0  0  0  0  0  0  0  0
    5.1587    0.2964  -11.8392 C   0  0  0  0  0  0  0  0  0  0  0  0
    5.5653   -0.9698  -12.2481 C   0  0  0  0  0  0  0  0  0  0  0  0
    6.6494   -1.5973  -11.6077 C   0  0  0  0  0  0  0  0  0  0  0  0
    6.9760   -2.8348  -12.0604 O   0  0  0  0  0  0  0  0  0  0  0  0
    8.0612   -3.5198  -11.4755 C   0  0  0  0  0  0  0  0  0  0  0  0
    7.3165   -0.9358  -10.5704 C   0  0  0  0  0  0  0  0  0  0  0  0
    7.1230    1.5089   -7.9445 N   0  0  0  0  0  0  0  0  0  0  0  0
    5.6050    1.4656   -7.5073 B   0  0  2  0  0  0  0  0  0  0  0  0
    5.1893    0.1455   -7.5338 F   0  0  0  0  0  0  0  0  0  0  0  0
    4.8420    2.2784   -8.3302 F   0  0  0  0  0  0  0  0  0  0  0  0
    5.5248    2.0446   -6.0391 N   0  0  0  0  0  0  0  0  0  0  0  0
    4.4099    2.2787   -5.3059 C   0  0  0  0  0  0  0  0  0  0  0  0
    3.0327    1.9853   -5.7598 C   0  0  0  0  0  0  0  0  0  0  0  0
    2.6369    0.7058   -6.1757 C   0  0  0  0  0  0  0  0  0  0  0  0
    1.3071    0.4848   -6.5519 C   0  0  0  0  0  0  0  0  0  0  0  0
    0.3741    1.5158   -6.5271 C   0  0  0  0  0  0  0  0  0  0  0  0
    0.7641    2.8026   -6.1149 C   0  0  0  0  0  0  0  0  0  0  0  0
   -0.2058    3.7537   -6.1265 O   0  0  0  0  0  0  0  0  0  0  0  0
    0.1092    5.0643   -5.7149 C   0  0  0  0  0  0  0  0  0  0  0  0
    2.0880    3.0323   -5.7255 C   0  0  0  0  0  0  0  0  0  0  0  0
    2.8600    2.4766   -2.5067 C   0  0  0  0  0  0  0  0  0  0  0  0
   -0.4529    1.3849    0.1009 H   0  0  0  0  0  0  0  0  0  0  0  0
   -0.3374    3.1573   -0.1348 H   0  0  0  0  0  0  0  0  0  0  0  0
    0.8092    2.3196    0.9644 H   0  0  0  0  0  0  0  0  0  0  0  0
    1.6929    4.3437    0.1196 H   0  0  0  0  0  0  0  0  0  0  0  0
    3.5299    5.8107   -0.6454 H   0  0  0  0  0  0  0  0  0  0  0  0
    4.9366    5.1807   -2.5914 H   0  0  0  0  0  0  0  0  0  0  0  0
    6.7959    3.4906   -3.3299 H   0  0  0  0  0  0  0  0  0  0  0  0
    9.3372    0.1662   -4.9176 H   0  0  0  0  0  0  0  0  0  0  0  0
    8.2593    0.6408   -3.6009 H   0  0  0  0  0  0  0  0  0  0  0  0
    9.9439    0.1903   -3.2434 H   0  0  0  0  0  0  0  0  0  0  0  0
   11.3025    1.9937   -2.6736 H   0  0  0  0  0  0  0  0  0  0  0  0
   12.5216    3.9465   -1.7568 H   0  0  0  0  0  0  0  0  0  0  0  0
   12.2926    5.5676   -2.4623 H   0  0  0  0  0  0  0  0  0  0  0  0
   13.3434    4.3866   -3.2669 H   0  0  0  0  0  0  0  0  0  0  0  0
   10.8695    5.8581   -4.5113 H   0  0  0  0  0  0  0  0  0  0  0  0
    9.2234    6.2989   -6.0989 H   0  0  0  0  0  0  0  0  0  0  0  0
    7.7109    5.3768   -5.9146 H   0  0  0  0  0  0  0  0  0  0  0  0
    8.8600    4.9322   -7.1803 H   0  0  0  0  0  0  0  0  0  0  0  0
   10.3584    2.0835   -7.4478 H   0  0  0  0  0  0  0  0  0  0  0  0
   11.5402    0.0864   -8.6683 H   0  0  0  0  0  0  0  0  0  0  0  0
   13.2479   -0.4201  -10.4073 H   0  0  0  0  0  0  0  0  0  0  0  0
   12.7517    0.0211  -12.8235 H   0  0  0  0  0  0  0  0  0  0  0  0
    9.4571    1.5850  -15.3085 H   0  0  0  0  0  0  0  0  0  0  0  0
    9.1908    2.5382  -13.8149 H   0  0  0  0  0  0  0  0  0  0  0  0
    8.5234    0.8774  -13.9507 H   0  0  0  0  0  0  0  0  0  0  0  0
    8.8633    1.5222  -11.7264 H   0  0  0  0  0  0  0  0  0  0  0  0
    5.4742    1.9447  -10.4721 H   0  0  0  0  0  0  0  0  0  0  0  0
    4.3127    0.7768  -12.3373 H   0  0  0  0  0  0  0  0  0  0  0  0
    5.0604   -1.5027  -13.0564 H   0  0  0  0  0  0  0  0  0  0  0  0
    8.1428   -4.4814  -12.0001 H   0  0  0  0  0  0  0  0  0  0  0  0
    7.8942   -3.7130  -10.4003 H   0  0  0  0  0  0  0  0  0  0  0  0
    9.0097   -2.9656  -11.5931 H   0  0  0  0  0  0  0  0  0  0  0  0
    8.1595   -1.4024  -10.0637 H   0  0  0  0  0  0  0  0  0  0  0  0
    3.3613   -0.1051   -6.2124 H   0  0  0  0  0  0  0  0  0  0  0  0
    0.9981   -0.5131   -6.8729 H   0  0  0  0  0  0  0  0  0  0  0  0
   -0.6652    1.3577   -6.8220 H   0  0  0  0  0  0  0  0  0  0  0  0
   -0.8170    5.6493   -5.7975 H   0  0  0  0  0  0  0  0  0  0  0  0
    0.8798    5.5246   -6.3597 H   0  0  0  0  0  0  0  0  0  0  0  0
    0.4602    5.0948   -4.6676 H   0  0  0  0  0  0  0  0  0  0  0  0
    2.4103    4.0208   -5.4022 H   0  0  0  0  0  0  0  0  0  0  0  0
    2.6511    1.5259   -2.9982 H   0  0  0  0  0  0  0  0  0  0  0  0
  1  2  1  0
  1 56  1  0
  1 57  1  0
  1 58  1  0
  2  3  1  0
  3  4  2  0
  3 55  1  0
  4  5  1  0
  4 59  1  0
  5  6  2  0
  5 60  1  0
  6  7  1  0
  6 61  1  0
  7  8  1  0
  7 55  2  0
  8  9  2  0
  8 46  1  0
  9 10  1  0
  9 62  1  0
 10 11  2  0
 10 45  1  0
 11 12  1  0
 11 21  1  0
 12 13  2  0
 12 19  1  0
 13 14  1  0
 13 15  1  0
 14 63  1  0
 14 64  1  0
 14 65  1  0
 15 16  2  0
 15 66  1  0
 16 17  1  0
 16 18  1  0
 17 67  1  0
 17 68  1  0
 17 69  1  0
 18 19  2  0
 18 70  1  0
 19 20  1  0
 20 71  1  0
 20 72  1  0
 20 73  1  0
 21 22  2  0
 21 41  1  0
 22 23  1  0
 22 74  1  0
 23 24  1  0
 23 32  2  0
 24 25  2  0
 24 31  1  0
 25 26  1  0
 25 75  1  0
 26 27  2  0
 26 76  1  0
 27 28  1  0
 27 77  1  0
 28 29  1  0
 28 31  2  0
 29 30  1  0
 30 78  1  0
 30 79  1  0
 30 80  1  0
 31 81  1  0
 32 33  1  0
 32 41  1  0
 33 34  2  0
 33 40  1  0
 34 35  1  0
 34 82  1  0
 35 36  2  0
 35 83  1  0
 36 37  1  0
 36 84  1  0
 37 38  1  0
 37 40  2  0
 38 39  1  0
 39 85  1  0
 39 86  1  0
 39 87  1  0
 40 88  1  0
 41 42  1  0
 42 43  1  1
 42 44  1  0
 42 45  1  0
 45 46  2  0
 46 47  1  0
 47 48  2  0
 47 54  1  0
 48 49  1  0
 48 89  1  0
 49 50  2  0
 49 90  1  0
 50 51  1  0
 50 91  1  0
 51 52  1  0
 51 54  2  0
 52 53  1  0
 53 92  1  0
 53 93  1  0
 53 94  1  0
 54 95  1  0
 55 96  1  0
M  CHG  2  42  -1  45   1
M  END

