
     RDKit          3D

 65 70  0  0  0  0  0  0  0  0999 V2000
   18.5085    2.7499   -9.1233 C   0  0  0  0  0  0  0  0  0  0  0  0
   18.0571    1.3676   -8.7308 C   0  0  0  0  0  0  0  0  0  0  0  0
   18.4219    0.2287   -9.4676 C   0  0  0  0  0  0  0  0  0  0  0  0
   17.9766   -1.0251   -9.0577 C   0  0  0  0  0  0  0  0  0  0  0  0
   17.1681   -1.1237   -7.9104 C   0  0  0  0  0  0  0  0  0  0  0  0
   16.6653   -2.3588   -7.4128 C   0  0  0  0  0  0  0  0  0  0  0  0
   16.1780   -3.3473   -6.8912 C   0  0  0  0  0  0  0  0  0  0  0  0
   15.6419   -4.5448   -6.3361 C   0  0  0  0  0  0  0  0  0  0  0  0
   15.9224   -5.7640   -6.9779 C   0  0  0  0  0  0  0  0  0  0  0  0
   15.4244   -6.9746   -6.4807 C   0  0  0  0  0  0  0  0  0  0  0  0
   14.6406   -6.9985   -5.3364 C   0  0  0  0  0  0  0  0  0  0  0  0
   14.3382   -5.7959   -4.6633 C   0  0  0  0  0  0  0  0  0  0  0  0
   13.5628   -5.8680   -3.5248 N   0  0  0  0  0  0  0  0  0  0  0  0
   13.2485   -4.7879   -2.8906 C   0  0  0  0  0  0  0  0  0  0  0  0
   12.4468   -4.9415   -1.5999 C   0  0  2  0  0  0  0  0  0  0  0  0
   11.8436   -4.0456   -1.4113 H   0  0  0  0  0  0  0  0  0  0  0  0
   13.4020   -5.1497   -0.4081 C   0  0  0  0  0  0  0  0  0  0  0  0
   11.5130   -6.0385   -1.7422 N   0  0  0  0  0  0  0  0  0  0  0  0
   10.2058   -5.9218   -1.3762 C   0  0  0  0  0  0  0  0  0  0  0  0
    9.7393   -4.8865   -0.8819 O   0  0  0  0  0  0  0  0  0  0  0  0
    9.3647   -7.1046   -1.5898 C   0  0  0  0  0  0  0  0  0  0  0  0
    7.9712   -7.1845   -1.2696 C   0  0  0  0  0  0  0  0  0  0  0  0
    7.2435   -6.1790   -0.7481 N   0  0  0  0  0  0  0  0  0  0  0  0
    7.4417   -8.3890   -1.5523 N   0  0  0  0  0  0  0  0  0  0  0  0
    8.4712   -9.1002   -2.0538 N   0  0  0  0  0  0  0  0  0  0  0  0
    8.4242  -10.3786   -2.4814 C   0  0  0  0  0  0  0  0  0  0  0  0
    9.5864  -10.9502   -2.9656 C   0  0  0  0  0  0  0  0  0  0  0  0
   10.7639  -10.1659   -2.9875 C   0  0  0  0  0  0  0  0  0  0  0  0
   10.8103   -8.9111   -2.5688 N   0  0  0  0  0  0  0  0  0  0  0  0
    9.6768   -8.3680   -2.1021 C   0  0  0  0  0  0  0  0  0  0  0  0
   13.6583   -3.5266   -3.2899 N   0  0  0  0  0  0  0  0  0  0  0  0
   13.2504   -2.3268   -2.5942 C   0  0  0  0  0  0  0  0  0  0  0  0
   11.9815   -1.7864   -2.8247 C   0  0  0  0  0  0  0  0  0  0  0  0
   11.5940   -0.6207   -2.1595 C   0  0  0  0  0  0  0  0  0  0  0  0
   12.4766    0.0117   -1.2793 C   0  0  0  0  0  0  0  0  0  0  0  0
   13.7505   -0.5233   -1.0648 C   0  0  0  0  0  0  0  0  0  0  0  0
   14.1404   -1.6920   -1.7225 C   0  0  0  0  0  0  0  0  0  0  0  0
   14.4882   -3.3258   -4.4383 C   0  0  0  0  0  0  0  0  0  0  0  0
   14.8319   -2.2013   -4.7392 O   0  0  0  0  0  0  0  0  0  0  0  0
   14.8331   -4.5633   -5.1576 C   0  0  0  0  0  0  0  0  0  0  0  0
   16.8572    0.0844   -7.2394 C   0  0  0  0  0  0  0  0  0  0  0  0
   17.2849    1.2766   -7.6349 N   0  0  0  0  0  0  0  0  0  0  0  0
   19.1254    2.7427  -10.0332 H   0  0  0  0  0  0  0  0  0  0  0  0
   19.0886    3.2062   -8.3047 H   0  0  0  0  0  0  0  0  0  0  0  0
   17.6350    3.4008   -9.2905 H   0  0  0  0  0  0  0  0  0  0  0  0
   19.0504    0.3287  -10.3556 H   0  0  0  0  0  0  0  0  0  0  0  0
   18.2467   -1.9257   -9.6138 H   0  0  0  0  0  0  0  0  0  0  0  0
   16.5395   -5.7509   -7.8777 H   0  0  0  0  0  0  0  0  0  0  0  0
   15.6587   -7.9062   -7.0022 H   0  0  0  0  0  0  0  0  0  0  0  0
   14.2394   -7.9262   -4.9255 H   0  0  0  0  0  0  0  0  0  0  0  0
   12.8147   -5.2474    0.5168 H   0  0  0  0  0  0  0  0  0  0  0  0
   14.0897   -4.2980   -0.2920 H   0  0  0  0  0  0  0  0  0  0  0  0
   13.9974   -6.0647   -0.5507 H   0  0  0  0  0  0  0  0  0  0  0  0
   11.8374   -6.8908   -2.1999 H   0  0  0  0  0  0  0  0  0  0  0  0
    7.7465   -5.3203   -0.5381 H   0  0  0  0  0  0  0  0  0  0  0  0
    6.2745   -6.3225   -0.5035 H   0  0  0  0  0  0  0  0  0  0  0  0
    7.4548  -10.8746   -2.4115 H   0  0  0  0  0  0  0  0  0  0  0  0
    9.5867  -11.9809   -3.3197 H   0  0  0  0  0  0  0  0  0  0  0  0
   11.6986  -10.5949   -3.3649 H   0  0  0  0  0  0  0  0  0  0  0  0
   11.3003   -2.2835   -3.5185 H   0  0  0  0  0  0  0  0  0  0  0  0
   10.5987   -0.2054   -2.3335 H   0  0  0  0  0  0  0  0  0  0  0  0
   12.1728    0.9252   -0.7624 H   0  0  0  0  0  0  0  0  0  0  0  0
   14.4472   -0.0273   -0.3847 H   0  0  0  0  0  0  0  0  0  0  0  0
   15.1381   -2.1092   -1.5726 H   0  0  0  0  0  0  0  0  0  0  0  0
   16.2286    0.0417   -6.3426 H   0  0  0  0  0  0  0  0  0  0  0  0
  1  2  1  0
  1 43  1  0
  1 44  1  0
  1 45  1  0
  2  3  2  0
  2 42  1  0
  3  4  1  0
  3 46  1  0
  4  5  2  0
  4 47  1  0
  5  6  1  0
  5 41  1  0
  6  7  3  0
  7  8  1  0
  8  9  2  0
  8 40  1  0
  9 10  1  0
  9 48  1  0
 10 11  2  0
 10 49  1  0
 11 12  1  0
 11 50  1  0
 12 13  1  0
 12 40  2  0
 13 14  2  0
 14 15  1  0
 14 31  1  0
 15 16  1  1
 15 17  1  0
 15 18  1  0
 17 51  1  0
 17 52  1  0
 17 53  1  0
 18 19  1  0
 18 54  1  0
 19 20  2  0
 19 21  1  0
 21 22  1  0
 21 30  2  0
 22 23  1  0
 22 24  2  0
 23 55  1  0
 23 56  1  0
 24 25  1  0
 25 26  1  0
 25 30  1  0
 26 27  2  0
 26 57  1  0
 27 28  1  0
 27 58  1  0
 28 29  2  0
 28 59  1  0
 29 30  1  0
 31 32  1  0
 31 38  1  0
 32 33  2  0
 32 37  1  0
 33 34  1  0
 33 60  1  0
 34 35  2  0
 34 61  1  0
 35 36  1  0
 35 62  1  0
 36 37  2  0
 36 63  1  0
 37 64  1  0
 38 39  2  0
 38 40  1  0
 41 42  2  0
 41 65  1  0
M  END

