
     RDKit          3D

 54 56  0  0  0  0  0  0  0  0999 V2000
    3.4586    3.7354   -2.5725 C   0  0  0  0  0  0  0  0  0  0  0  0
    3.8683    2.6548   -1.5707 C   0  0  0  0  0  0  0  0  0  0  0  0
    3.8928    3.1155   -0.1027 C   0  0  1  0  0  0  0  0  0  0  0  0
    2.5304    3.5723    0.4298 C   0  0  0  0  0  0  0  0  0  0  0  0
    4.4628    2.0273    0.7110 N   0  0  0  0  0  0  0  0  0  0  0  0
    5.2807    2.3353    2.1420 S   0  0  1  0  0  0  0  0  0  0  0  0
    4.9730    3.6893    2.6179 O   0  0  0  0  0  0  0  0  0  0  0  0
    5.0563    1.1506    2.9742 O   0  0  0  0  0  0  0  0  0  0  0  0
    7.0122    2.3416    1.6476 C   0  0  0  0  0  0  0  0  0  0  0  0
    7.7008    3.5545    1.5720 C   0  0  0  0  0  0  0  0  0  0  0  0
    9.0438    3.5456    1.1933 C   0  0  0  0  0  0  0  0  0  0  0  0
    9.6898    2.3349    0.9063 C   0  0  0  0  0  0  0  0  0  0  0  0
   11.1284    2.3895    0.5041 C   0  0  0  0  0  0  0  0  0  0  0  0
   11.7529    3.4107    0.3438 O   0  0  0  0  0  0  0  0  0  0  0  0
   11.6713    1.1590    0.3781 O   0  0  0  0  0  0  0  0  0  0  0  0
   12.9850    1.0973   -0.1438 C   0  0  0  0  0  0  0  0  0  0  0  0
   12.9675    1.1920   -1.6811 C   0  0  0  0  0  0  0  0  0  0  0  0
   11.9028    1.3694   -2.2467 O   0  0  0  0  0  0  0  0  0  0  0  0
   14.2313    1.0624   -2.4118 C   0  0  0  0  0  0  0  0  0  0  0  0
   15.5339    0.8953   -1.9245 C   0  0  0  0  0  0  0  0  0  0  0  0
   16.0884    0.8040   -0.5354 C   0  0  0  0  0  0  0  0  0  0  0  0
   16.3887    0.8202   -2.9917 N   0  0  0  0  0  0  0  0  0  0  0  0
   17.3911    0.7077   -2.9079 H   0  0  0  0  0  0  0  0  0  0  0  0
   15.6988    0.9322   -4.1872 C   0  0  0  0  0  0  0  0  0  0  0  0
   16.1676    0.9092   -5.5059 C   0  0  0  0  0  0  0  0  0  0  0  0
   15.2222    1.0485   -6.5195 C   0  0  0  0  0  0  0  0  0  0  0  0
   13.8527    1.2061   -6.2197 C   0  0  0  0  0  0  0  0  0  0  0  0
   13.3932    1.2284   -4.9050 C   0  0  0  0  0  0  0  0  0  0  0  0
   14.3280    1.0881   -3.8621 C   0  0  0  0  0  0  0  0  0  0  0  0
    8.9846    1.1230    0.9996 C   0  0  0  0  0  0  0  0  0  0  0  0
    7.6428    1.1230    1.3744 C   0  0  0  0  0  0  0  0  0  0  0  0
    3.5387    3.3594   -3.6044 H   0  0  0  0  0  0  0  0  0  0  0  0
    4.1093    4.6225   -2.4927 H   0  0  0  0  0  0  0  0  0  0  0  0
    2.4196    4.0696   -2.4257 H   0  0  0  0  0  0  0  0  0  0  0  0
    4.8745    2.2790   -1.8178 H   0  0  0  0  0  0  0  0  0  0  0  0
    3.1873    1.7875   -1.6585 H   0  0  0  0  0  0  0  0  0  0  0  0
    4.5987    3.9589   -0.0202 H   0  0  0  0  0  0  0  0  0  0  0  0
    1.7921    2.7540    0.3648 H   0  0  0  0  0  0  0  0  0  0  0  0
    2.1383    4.4253   -0.1448 H   0  0  0  0  0  0  0  0  0  0  0  0
    2.6221    3.8813    1.4804 H   0  0  0  0  0  0  0  0  0  0  0  0
    3.8696    1.2085    0.8446 H   0  0  0  0  0  0  0  0  0  0  0  0
    7.1848    4.4836    1.8188 H   0  0  0  0  0  0  0  0  0  0  0  0
    9.6134    4.4737    1.1180 H   0  0  0  0  0  0  0  0  0  0  0  0
   13.3968    0.1295    0.1765 H   0  0  0  0  0  0  0  0  0  0  0  0
   13.6004    1.9094    0.2727 H   0  0  0  0  0  0  0  0  0  0  0  0
   15.8470    1.6973    0.0608 H   0  0  0  0  0  0  0  0  0  0  0  0
   17.1843    0.7093   -0.5586 H   0  0  0  0  0  0  0  0  0  0  0  0
   15.6949   -0.0692    0.0085 H   0  0  0  0  0  0  0  0  0  0  0  0
   17.2298    0.7878   -5.7329 H   0  0  0  0  0  0  0  0  0  0  0  0
   15.5477    1.0363   -7.5627 H   0  0  0  0  0  0  0  0  0  0  0  0
   13.1382    1.3146   -7.0397 H   0  0  0  0  0  0  0  0  0  0  0  0
   12.3371    1.3530   -4.6680 H   0  0  0  0  0  0  0  0  0  0  0  0
    9.4962    0.1869    0.7750 H   0  0  0  0  0  0  0  0  0  0  0  0
    7.0853    0.1890    1.4640 H   0  0  0  0  0  0  0  0  0  0  0  0
  1  2  1  0
  1 32  1  0
  1 33  1  0
  1 34  1  0
  2  3  1  0
  2 35  1  0
  2 36  1  0
  3  4  1  0
  3  5  1  0
  3 37  1  6
  4 38  1  0
  4 39  1  0
  4 40  1  0
  6  5  1  6
  5 41  1  0
  6  7  2  0
  6  8  2  0
  6  9  1  0
  9 10  2  0
  9 31  1  0
 10 11  1  0
 10 42  1  0
 11 12  2  0
 11 43  1  0
 12 13  1  0
 12 30  1  0
 13 14  2  0
 13 15  1  0
 15 16  1  0
 16 17  1  0
 16 44  1  0
 16 45  1  0
 17 18  2  0
 17 19  1  0
 19 20  2  0
 19 29  1  0
 20 21  1  0
 20 22  1  0
 21 46  1  0
 21 47  1  0
 21 48  1  0
 22 23  1  0
 22 24  1  0
 24 25  1  0
 24 29  2  0
 25 26  2  0
 25 49  1  0
 26 27  1  0
 26 50  1  0
 27 28  2  0
 27 51  1  0
 28 29  1  0
 28 52  1  0
 30 31  2  0
 30 53  1  0
 31 54  1  0
M  END

