
     RDKit          3D

 42 44  0  0  0  0  0  0  0  0999 V2000
   -1.2645   -6.9458    2.6966 C   0  0  0  0  0  0  0  0  0  0  0  0
   -1.7788   -5.6570    2.4438 O   0  0  0  0  0  0  0  0  0  0  0  0
   -2.7765   -5.5058    1.5355 C   0  0  0  0  0  0  0  0  0  0  0  0
   -3.3628   -6.5503    0.8070 C   0  0  0  0  0  0  0  0  0  0  0  0
   -4.3989   -6.2764   -0.0936 C   0  0  0  0  0  0  0  0  0  0  0  0
   -4.8594   -4.9743   -0.2804 C   0  0  0  0  0  0  0  0  0  0  0  0
   -4.2600   -3.9433    0.4419 C   0  0  0  0  0  0  0  0  0  0  0  0
   -4.6984   -2.6881    0.2754 F   0  0  0  0  0  0  0  0  0  0  0  0
   -3.2233   -4.1757    1.3499 C   0  0  0  0  0  0  0  0  0  0  0  0
   -2.7203   -3.1493    2.0902 O   0  0  0  0  0  0  0  0  0  0  0  0
   -1.3703   -2.7280    1.8613 C   0  0  2  0  0  0  0  0  0  0  0  0
   -0.7319   -2.3739    3.1953 C   0  0  0  0  0  0  0  0  0  0  0  0
   -1.3699   -2.6456    4.4140 C   0  0  0  0  0  0  0  0  0  0  0  0
   -0.7077   -2.3226    5.5991 C   0  0  0  0  0  0  0  0  0  0  0  0
    0.5615   -1.7439    5.5320 C   0  0  0  0  0  0  0  0  0  0  0  0
    1.1114   -1.5143    4.2676 C   0  0  0  0  0  0  0  0  0  0  0  0
    0.4849   -1.8188    3.1300 N   0  0  0  0  0  0  0  0  0  0  0  0
   -1.3213   -1.5759    0.8500 C   0  0  2  0  0  0  0  0  0  0  0  0
   -0.2724   -1.2182    0.8250 H   0  0  0  0  0  0  0  0  0  0  0  0
   -2.2478   -0.3966    1.1833 C   0  0  0  0  0  0  0  0  0  0  0  0
   -2.3053    0.5944    0.1090 N   0  0  0  0  0  0  0  0  0  0  0  0
   -2.5993   -0.0367   -1.1743 C   0  0  0  0  0  0  0  0  0  0  0  0
   -1.6591   -1.2051   -1.4734 C   0  0  0  0  0  0  0  0  0  0  0  0
   -1.6620   -2.1413   -0.4117 O   0  0  0  0  0  0  0  0  0  0  0  0
   -0.4801   -6.8245    3.4554 H   0  0  0  0  0  0  0  0  0  0  0  0
   -0.8209   -7.3960    1.7904 H   0  0  0  0  0  0  0  0  0  0  0  0
   -2.0412   -7.6265    3.0887 H   0  0  0  0  0  0  0  0  0  0  0  0
   -3.0232   -7.5769    0.9413 H   0  0  0  0  0  0  0  0  0  0  0  0
   -4.8529   -7.0970   -0.6538 H   0  0  0  0  0  0  0  0  0  0  0  0
   -5.6666   -4.7355   -0.9747 H   0  0  0  0  0  0  0  0  0  0  0  0
   -0.7968   -3.5598    1.4202 H   0  0  0  0  0  0  0  0  0  0  0  0
   -2.3579   -3.1034    4.4120 H   0  0  0  0  0  0  0  0  0  0  0  0
   -1.1789   -2.5210    6.5656 H   0  0  0  0  0  0  0  0  0  0  0  0
    1.1153   -1.4752    6.4344 H   0  0  0  0  0  0  0  0  0  0  0  0
    2.1060   -1.0621    4.1708 H   0  0  0  0  0  0  0  0  0  0  0  0
   -1.9181    0.0939    2.1133 H   0  0  0  0  0  0  0  0  0  0  0  0
   -3.2625   -0.7885    1.3524 H   0  0  0  0  0  0  0  0  0  0  0  0
   -1.4127    1.0874    0.0493 H   0  0  0  0  0  0  0  0  0  0  0  0
   -2.5470    0.7157   -1.9795 H   0  0  0  0  0  0  0  0  0  0  0  0
   -3.6344   -0.4189   -1.1422 H   0  0  0  0  0  0  0  0  0  0  0  0
   -0.6275   -0.8217   -1.6372 H   0  0  0  0  0  0  0  0  0  0  0  0
   -1.9648   -1.7532   -2.3794 H   0  0  0  0  0  0  0  0  0  0  0  0
  1  2  1  0
  1 25  1  0
  1 26  1  0
  1 27  1  0
  2  3  1  0
  3  4  2  0
  3  9  1  0
  4  5  1  0
  4 28  1  0
  5  6  2  0
  5 29  1  0
  6  7  1  0
  6 30  1  0
  7  8  1  0
  7  9  2  0
  9 10  1  0
 10 11  1  0
 11 12  1  0
 11 18  1  0
 11 31  1  6
 12 13  2  0
 12 17  1  0
 13 14  1  0
 13 32  1  0
 14 15  2  0
 14 33  1  0
 15 16  1  0
 15 34  1  0
 16 17  2  0
 16 35  1  0
 18 19  1  6
 18 20  1  0
 18 24  1  0
 20 21  1  0
 20 36  1  0
 20 37  1  0
 21 22  1  0
 21 38  1  0
 22 23  1  0
 22 39  1  0
 22 40  1  0
 23 24  1  0
 23 41  1  0
 23 42  1  0
M  END

