
     RDKit          3D

 36 36  0  0  0  0  0  0  0  0999 V2000
    3.0111   -0.1197   -1.3963 C   0  0  0  0  0  0  0  0  0  0  0  0
    2.7511    0.3405    0.0435 C   0  0  1  0  0  0  0  0  0  0  0  0
    1.2565    0.6022    0.2734 C   0  0  0  0  0  0  0  0  0  0  0  0
    3.2640   -0.6669    1.0920 C   0  0  0  0  0  0  0  0  0  0  0  0
    4.7750   -1.0049    1.0435 C   0  0  1  0  0  0  0  0  0  0  0  0
    5.7036    0.2129    1.2148 C   0  0  0  0  0  0  0  0  0  0  0  0
    5.5462    0.8845    2.4874 N   0  0  0  0  0  0  0  0  0  0  0  0
    5.0500    2.1473    2.6099 C   0  0  0  0  0  0  0  0  0  0  0  0
    4.7231    2.8335    1.6487 O   0  0  0  0  0  0  0  0  0  0  0  0
    4.9289    2.6737    4.0157 C   0  0  0  0  0  0  0  0  0  0  0  0
    4.9517    1.8824    5.1759 C   0  0  0  0  0  0  0  0  0  0  0  0
    4.8137    2.4870    6.4219 C   0  0  0  0  0  0  0  0  0  0  0  0
    4.6571    3.8805    6.4496 C   0  0  0  0  0  0  0  0  0  0  0  0
    4.4870    4.6723    8.0021 Cl  0  0  0  0  0  0  0  0  0  0  0  0
    4.6234    4.6433    5.3742 N   0  0  0  0  0  0  0  0  0  0  0  0
    4.7495    4.0549    4.1830 C   0  0  0  0  0  0  0  0  0  0  0  0
    5.1017   -2.0691    2.0943 C   0  0  0  0  0  0  0  0  0  0  0  0
    5.7462   -1.8635    3.0937 O   0  0  0  0  0  0  0  0  0  0  0  0
    4.5994   -3.2992    1.8673 O   0  0  0  0  0  0  0  0  0  0  0  0
    2.5990    0.6035   -2.1176 H   0  0  0  0  0  0  0  0  0  0  0  0
    2.5320   -1.0946   -1.5981 H   0  0  0  0  0  0  0  0  0  0  0  0
    4.0852   -0.2194   -1.6217 H   0  0  0  0  0  0  0  0  0  0  0  0
    3.2790    1.2958    0.2056 H   0  0  0  0  0  0  0  0  0  0  0  0
    0.6610   -0.3163    0.1286 H   0  0  0  0  0  0  0  0  0  0  0  0
    0.8754    1.3606   -0.4286 H   0  0  0  0  0  0  0  0  0  0  0  0
    1.0652    0.9683    1.2948 H   0  0  0  0  0  0  0  0  0  0  0  0
    2.6843   -1.6035    0.9885 H   0  0  0  0  0  0  0  0  0  0  0  0
    3.0300   -0.2836    2.0995 H   0  0  0  0  0  0  0  0  0  0  0  0
    5.0052   -1.4486    0.0572 H   0  0  0  0  0  0  0  0  0  0  0  0
    5.5087    0.9535    0.4289 H   0  0  0  0  0  0  0  0  0  0  0  0
    6.7484   -0.1228    1.1064 H   0  0  0  0  0  0  0  0  0  0  0  0
    5.8289    0.3478    3.2989 H   0  0  0  0  0  0  0  0  0  0  0  0
    5.0540    0.7951    5.1242 H   0  0  0  0  0  0  0  0  0  0  0  0
    4.8193    1.9090    7.3463 H   0  0  0  0  0  0  0  0  0  0  0  0
    4.7092    4.6945    3.2964 H   0  0  0  0  0  0  0  0  0  0  0  0
    4.1170   -3.3224    1.0282 H   0  0  0  0  0  0  0  0  0  0  0  0
  1  2  1  0
  1 20  1  0
  1 21  1  0
  1 22  1  0
  2  3  1  0
  2  4  1  0
  2 23  1  1
  3 24  1  0
  3 25  1  0
  3 26  1  0
  4  5  1  0
  4 27  1  0
  4 28  1  0
  5  6  1  0
  5 17  1  0
  5 29  1  6
  6  7  1  0
  6 30  1  0
  6 31  1  0
  7  8  1  0
  7 32  1  0
  8  9  2  0
  8 10  1  0
 10 11  2  0
 10 16  1  0
 11 12  1  0
 11 33  1  0
 12 13  2  0
 12 34  1  0
 13 14  1  0
 13 15  1  0
 15 16  2  0
 16 35  1  0
 17 18  2  0
 17 19  1  0
 19 36  1  0
M  END

