
     RDKit          3D

 59 63  0  0  0  0  0  0  0  0999 V2000
   13.5326    5.5272   -1.1817 C   0  0  0  0  0  0  0  0  0  0  0  0
   13.3794    4.7552   -2.4930 C   0  0  0  0  0  0  0  0  0  0  0  0
   11.9635    4.8158   -3.0736 C   0  0  0  0  0  0  0  0  0  0  0  0
   11.8073    4.0385   -4.3939 C   0  0  0  0  0  0  0  0  0  0  0  0
   10.4097    4.1018   -4.9665 C   0  0  0  0  0  0  0  0  0  0  0  0
   10.0293    5.1396   -5.8354 C   0  0  0  0  0  0  0  0  0  0  0  0
    8.7321    5.2279   -6.3339 C   0  0  0  0  0  0  0  0  0  0  0  0
    7.7672    4.2703   -5.9735 C   0  0  0  0  0  0  0  0  0  0  0  0
    6.4111    4.3779   -6.5081 C   0  0  0  0  0  0  0  0  0  0  0  0
    5.9323    5.2759   -7.3224 N   0  0  0  0  0  0  0  0  0  0  0  0
    4.6030    4.9362   -7.5145 C   0  0  0  0  0  0  0  0  0  0  0  0
    3.7198    5.7560   -8.4193 C   0  0  0  0  0  0  0  0  0  0  0  0
    4.2173    5.9079   -9.7821 N   0  0  0  0  0  0  0  0  0  0  0  0
    4.2250    4.7002  -10.6076 C   0  0  1  0  0  0  0  0  0  0  0  0
    2.8125    4.3566  -11.1510 C   0  0  1  0  0  0  0  0  0  0  0  0
    2.3107    5.4829  -12.0756 C   0  0  0  0  0  0  0  0  0  0  0  0
    3.2736    5.6406  -13.2694 C   0  0  2  0  0  0  0  0  0  0  0  0
    3.3431    4.3149  -14.0544 C   0  0  0  0  0  0  0  0  0  0  0  0
    3.8501    3.1891  -13.1301 C   0  0  2  0  0  0  0  0  0  0  0  0
    2.8870    3.0325  -11.9370 C   0  0  0  0  0  0  0  0  0  0  0  0
    5.2510    3.5537  -12.6007 C   0  0  0  0  0  0  0  0  0  0  0  0
    5.1804    4.8761  -11.8121 C   0  0  1  0  0  0  0  0  0  0  0  0
    4.6767    6.0003  -12.7411 C   0  0  0  0  0  0  0  0  0  0  0  0
    4.3425    3.8108   -6.7879 C   0  0  0  0  0  0  0  0  0  0  0  0
    5.4888    3.4514   -6.1387 O   0  0  0  0  0  0  0  0  0  0  0  0
    8.1360    3.2270   -5.1068 C   0  0  0  0  0  0  0  0  0  0  0  0
    9.4384    3.1502   -4.6148 C   0  0  0  0  0  0  0  0  0  0  0  0
   14.5613    5.4634   -0.7925 H   0  0  0  0  0  0  0  0  0  0  0  0
   12.8574    5.1337   -0.4035 H   0  0  0  0  0  0  0  0  0  0  0  0
   13.2928    6.5954   -1.3150 H   0  0  0  0  0  0  0  0  0  0  0  0
   13.6622    3.6983   -2.3351 H   0  0  0  0  0  0  0  0  0  0  0  0
   14.0947    5.1474   -3.2389 H   0  0  0  0  0  0  0  0  0  0  0  0
   11.6755    5.8697   -3.2390 H   0  0  0  0  0  0  0  0  0  0  0  0
   11.2426    4.4211   -2.3350 H   0  0  0  0  0  0  0  0  0  0  0  0
   12.0885    2.9847   -4.2249 H   0  0  0  0  0  0  0  0  0  0  0  0
   12.5250    4.4373   -5.1315 H   0  0  0  0  0  0  0  0  0  0  0  0
   10.7683    5.8906   -6.1298 H   0  0  0  0  0  0  0  0  0  0  0  0
    8.4448    6.0350   -7.0103 H   0  0  0  0  0  0  0  0  0  0  0  0
    3.6162    6.7642   -7.9817 H   0  0  0  0  0  0  0  0  0  0  0  0
    2.7087    5.3212   -8.4381 H   0  0  0  0  0  0  0  0  0  0  0  0
    5.1613    6.2916   -9.7330 H   0  0  0  0  0  0  0  0  0  0  0  0
    4.5833    3.8220  -10.0263 H   0  0  0  0  0  0  0  0  0  0  0  0
    2.1136    4.2348  -10.3053 H   0  0  0  0  0  0  0  0  0  0  0  0
    2.2500    6.4257  -11.5108 H   0  0  0  0  0  0  0  0  0  0  0  0
    1.2941    5.2459  -12.4355 H   0  0  0  0  0  0  0  0  0  0  0  0
    2.9118    6.4449  -13.9329 H   0  0  0  0  0  0  0  0  0  0  0  0
    4.0154    4.4221  -14.9239 H   0  0  0  0  0  0  0  0  0  0  0  0
    2.3462    4.0570  -14.4532 H   0  0  0  0  0  0  0  0  0  0  0  0
    3.9018    2.2408  -13.6925 H   0  0  0  0  0  0  0  0  0  0  0  0
    3.2297    2.2151  -11.2785 H   0  0  0  0  0  0  0  0  0  0  0  0
    1.8811    2.7519  -12.2945 H   0  0  0  0  0  0  0  0  0  0  0  0
    5.9603    3.6581  -13.4401 H   0  0  0  0  0  0  0  0  0  0  0  0
    5.6369    2.7450  -11.9563 H   0  0  0  0  0  0  0  0  0  0  0  0
    6.1860    5.1277  -11.4285 H   0  0  0  0  0  0  0  0  0  0  0  0
    5.3801    6.1287  -13.5826 H   0  0  0  0  0  0  0  0  0  0  0  0
    4.6416    6.9572  -12.1974 H   0  0  0  0  0  0  0  0  0  0  0  0
    3.4672    3.1881   -6.6289 H   0  0  0  0  0  0  0  0  0  0  0  0
    7.3971    2.4751   -4.8239 H   0  0  0  0  0  0  0  0  0  0  0  0
    9.7095    2.3287   -3.9452 H   0  0  0  0  0  0  0  0  0  0  0  0
  1  2  1  0
  1 28  1  0
  1 29  1  0
  1 30  1  0
  2  3  1  0
  2 31  1  0
  2 32  1  0
  3  4  1  0
  3 33  1  0
  3 34  1  0
  4  5  1  0
  4 35  1  0
  4 36  1  0
  5  6  2  0
  5 27  1  0
  6  7  1  0
  6 37  1  0
  7  8  2  0
  7 38  1  0
  8  9  1  0
  8 26  1  0
  9 10  2  0
  9 25  1  0
 10 11  1  0
 11 12  1  0
 11 24  2  0
 12 13  1  0
 12 39  1  0
 12 40  1  0
 13 14  1  0
 13 41  1  0
 14 15  1  0
 14 22  1  0
 14 42  1  1
 15 16  1  0
 15 20  1  0
 15 43  1  1
 16 17  1  0
 16 44  1  0
 16 45  1  0
 17 18  1  0
 17 23  1  0
 17 46  1  6
 18 19  1  0
 18 47  1  0
 18 48  1  0
 19 20  1  0
 19 21  1  0
 19 49  1  6
 20 50  1  0
 20 51  1  0
 21 22  1  0
 21 52  1  0
 21 53  1  0
 22 23  1  0
 22 54  1  1
 23 55  1  0
 23 56  1  0
 24 25  1  0
 24 57  1  0
 26 27  2  0
 26 58  1  0
 27 59  1  0
M  END

