
     RDKit          3D

 43 44  0  0  0  0  0  0  0  0999 V2000
    2.1708   -6.6649   -8.0135 C   0  0  0  0  0  0  0  0  0  0  0  0
    1.4021   -6.0720   -6.8230 C   0  0  0  0  0  0  0  0  0  0  0  0
    2.2866   -5.3843   -5.8213 C   0  0  0  0  0  0  0  0  0  0  0  0
    2.7562   -4.0501   -5.8215 C   0  0  0  0  0  0  0  0  0  0  0  0
    3.5626   -3.9439   -4.6885 C   0  0  0  0  0  0  0  0  0  0  0  0
    4.2133   -2.7632   -4.0426 C   0  0  0  0  0  0  0  0  0  0  0  0
    4.1522   -2.6121   -2.8263 O   0  0  0  0  0  0  0  0  0  0  0  0
    4.8264   -1.8394   -4.8557 N   0  0  0  0  0  0  0  0  0  0  0  0
    5.2797   -2.0420   -6.2310 C   0  0  0  0  0  0  0  0  0  0  0  0
    4.8990   -0.8326   -7.0991 C   0  0  0  0  0  0  0  0  0  0  0  0
    5.3603    0.4411   -6.5449 N   0  0  0  0  0  0  0  0  0  0  0  0
    6.7637    0.7473   -6.8198 C   0  0  0  0  0  0  0  0  0  0  0  0
    6.9672    1.1216   -8.2693 C   0  0  0  0  0  0  0  0  0  0  0  0
    6.1129    2.0575   -8.7857 N   0  0  0  0  0  0  0  0  0  0  0  0
    7.9570    0.5801   -8.8924 N   0  0  0  0  0  0  0  0  0  0  0  0
    8.0223    1.0730  -10.2133 O   0  0  0  0  0  0  0  0  0  0  0  0
    4.9390    0.5876   -5.1532 C   0  0  0  0  0  0  0  0  0  0  0  0
    5.3235   -0.6006   -4.2590 C   0  0  0  0  0  0  0  0  0  0  0  0
    3.5243   -5.1724   -4.0864 N   0  0  0  0  0  0  0  0  0  0  0  0
    4.2197   -5.6192   -2.8900 C   0  0  0  0  0  0  0  0  0  0  0  0
    2.7768   -6.0457   -4.7702 N   0  0  0  0  0  0  0  0  0  0  0  0
    1.4867   -7.1685   -8.7156 H   0  0  0  0  0  0  0  0  0  0  0  0
    2.9117   -7.4037   -7.6698 H   0  0  0  0  0  0  0  0  0  0  0  0
    2.7121   -5.8835   -8.5715 H   0  0  0  0  0  0  0  0  0  0  0  0
    0.8559   -6.8740   -6.3018 H   0  0  0  0  0  0  0  0  0  0  0  0
    0.6466   -5.3568   -7.1895 H   0  0  0  0  0  0  0  0  0  0  0  0
    2.5020   -3.2584   -6.5225 H   0  0  0  0  0  0  0  0  0  0  0  0
    4.8538   -2.9643   -6.6400 H   0  0  0  0  0  0  0  0  0  0  0  0
    6.3802   -2.1650   -6.2288 H   0  0  0  0  0  0  0  0  0  0  0  0
    3.7985   -0.7953   -7.1911 H   0  0  0  0  0  0  0  0  0  0  0  0
    5.3132   -0.9592   -8.1115 H   0  0  0  0  0  0  0  0  0  0  0  0
    7.4799   -0.0631   -6.5864 H   0  0  0  0  0  0  0  0  0  0  0  0
    7.0401    1.6156   -6.1971 H   0  0  0  0  0  0  0  0  0  0  0  0
    5.2091    2.1044   -8.3267 H   0  0  0  0  0  0  0  0  0  0  0  0
    6.1304    2.1665   -9.7934 H   0  0  0  0  0  0  0  0  0  0  0  0
    8.7739    0.5931  -10.5801 H   0  0  0  0  0  0  0  0  0  0  0  0
    3.8392    0.6911   -5.1353 H   0  0  0  0  0  0  0  0  0  0  0  0
    5.3621    1.5181   -4.7429 H   0  0  0  0  0  0  0  0  0  0  0  0
    4.8917   -0.5067   -3.2548 H   0  0  0  0  0  0  0  0  0  0  0  0
    6.4233   -0.6579   -4.1425 H   0  0  0  0  0  0  0  0  0  0  0  0
    4.2238   -4.8112   -2.1502 H   0  0  0  0  0  0  0  0  0  0  0  0
    5.2568   -5.9127   -3.1229 H   0  0  0  0  0  0  0  0  0  0  0  0
    3.6803   -6.4941   -2.5078 H   0  0  0  0  0  0  0  0  0  0  0  0
  1  2  1  0
  1 22  1  0
  1 23  1  0
  1 24  1  0
  2  3  1  0
  2 25  1  0
  2 26  1  0
  3  4  1  0
  3 21  2  0
  4  5  2  0
  4 27  1  0
  5  6  1  0
  5 19  1  0
  6  7  2  0
  6  8  1  0
  8  9  1  0
  8 18  1  0
  9 10  1  0
  9 28  1  0
  9 29  1  0
 10 11  1  0
 10 30  1  0
 10 31  1  0
 11 12  1  0
 11 17  1  0
 12 13  1  0
 12 32  1  0
 12 33  1  0
 13 14  1  0
 13 15  2  0
 14 34  1  0
 14 35  1  0
 15 16  1  0
 16 36  1  0
 17 18  1  0
 17 37  1  0
 17 38  1  0
 18 39  1  0
 18 40  1  0
 19 20  1  0
 19 21  1  0
 20 41  1  0
 20 42  1  0
 20 43  1  0
M  END

