
     RDKit          3D

 28 29  0  0  0  0  0  0  0  0999 V2000
    0.8645    0.1736   -0.1002 O   0  0  0  0  0  0  0  0  0  0  0  0
    2.2755    0.1368   -0.0642 C   0  0  1  0  0  0  0  0  0  0  0  0
    2.6354   -0.0938    0.9596 H   0  0  0  0  0  0  0  0  0  0  0  0
    2.8531   -0.9414   -1.0150 C   0  0  0  0  0  0  0  0  0  0  0  0
    2.3842   -2.3336   -0.6643 C   0  0  0  0  0  0  0  0  0  0  0  0
    1.1774   -2.8398   -1.1800 C   0  0  0  0  0  0  0  0  0  0  0  0
    0.7123   -4.1069   -0.8118 C   0  0  0  0  0  0  0  0  0  0  0  0
    1.4473   -4.8927    0.0797 C   0  0  0  0  0  0  0  0  0  0  0  0
    2.6504   -4.4032    0.5992 C   0  0  0  0  0  0  0  0  0  0  0  0
    3.1110   -3.1366    0.2318 C   0  0  0  0  0  0  0  0  0  0  0  0
    2.8106    1.5143   -0.4129 C   0  0  0  0  0  0  0  0  0  0  0  0
    1.9597    2.5612   -0.7926 C   0  0  0  0  0  0  0  0  0  0  0  0
    2.5253    3.8008   -1.0979 C   0  0  0  0  0  0  0  0  0  0  0  0
    3.9106    3.9526   -1.0148 C   0  0  0  0  0  0  0  0  0  0  0  0
    4.6712    2.8449   -0.6265 C   0  0  0  0  0  0  0  0  0  0  0  0
    4.1396    1.6579   -0.3326 N   0  0  0  0  0  0  0  0  0  0  0  0
    0.5382   -0.7045    0.1388 H   0  0  0  0  0  0  0  0  0  0  0  0
    3.9493   -0.8714   -0.9622 H   0  0  0  0  0  0  0  0  0  0  0  0
    2.5491   -0.6824   -2.0422 H   0  0  0  0  0  0  0  0  0  0  0  0
    0.6040   -2.2371   -1.8902 H   0  0  0  0  0  0  0  0  0  0  0  0
   -0.2251   -4.4836   -1.2299 H   0  0  0  0  0  0  0  0  0  0  0  0
    1.0878   -5.8847    0.3649 H   0  0  0  0  0  0  0  0  0  0  0  0
    3.2353   -5.0136    1.2924 H   0  0  0  0  0  0  0  0  0  0  0  0
    4.0546   -2.7632    0.6405 H   0  0  0  0  0  0  0  0  0  0  0  0
    0.8848    2.3892   -0.8363 H   0  0  0  0  0  0  0  0  0  0  0  0
    1.8900    4.6393   -1.3963 H   0  0  0  0  0  0  0  0  0  0  0  0
    4.3953    4.9046   -1.2430 H   0  0  0  0  0  0  0  0  0  0  0  0
    5.7624    2.9242   -0.5488 H   0  0  0  0  0  0  0  0  0  0  0  0
  1  2  1  0
  1 17  1  0
  2  3  1  1
  2  4  1  0
  2 11  1  0
  4  5  1  0
  4 18  1  0
  4 19  1  0
  5  6  2  0
  5 10  1  0
  6  7  1  0
  6 20  1  0
  7  8  2  0
  7 21  1  0
  8  9  1  0
  8 22  1  0
  9 10  2  0
  9 23  1  0
 10 24  1  0
 11 12  2  0
 11 16  1  0
 12 13  1  0
 12 25  1  0
 13 14  2  0
 13 26  1  0
 14 15  1  0
 14 27  1  0
 15 16  2  0
 15 28  1  0
M  END

