
     RDKit          3D

 31 31  0  0  0  0  0  0  0  0999 V2000
    5.2340    3.0451    0.0175 C   0  0  0  0  0  0  0  0  0  0  0  0
    4.3329    1.4647    0.0411 S   0  0  0  0  0  0  0  0  0  0  0  0
    5.3519    0.5571    1.2685 C   0  0  0  0  0  0  0  0  0  0  0  0
    4.8487   -0.8837    1.4522 C   0  0  1  0  0  0  0  0  0  0  0  0
    5.0673   -1.7482    0.2034 C   0  0  0  0  0  0  0  0  0  0  0  0
    5.4602   -1.5333    2.7131 C   0  0  0  0  0  0  0  0  0  0  0  0
    6.9023   -1.7265    2.6632 N   0  0  0  0  0  0  0  0  0  0  0  0
    7.7702   -0.8837    3.2737 C   0  0  0  0  0  0  0  0  0  0  0  0
    7.4099    0.0865    3.9276 O   0  0  0  0  0  0  0  0  0  0  0  0
    9.2633   -1.1931    3.1843 C   0  0  0  0  0  0  0  0  0  0  0  0
   10.0423   -0.4868    4.1135 C   0  0  0  0  0  0  0  0  0  0  0  0
   11.4172   -0.6662    4.1427 C   0  0  0  0  0  0  0  0  0  0  0  0
   12.1673   -0.0055    5.0261 F   0  0  0  0  0  0  0  0  0  0  0  0
   12.0177   -1.5411    3.2391 C   0  0  0  0  0  0  0  0  0  0  0  0
   11.2890   -2.2036    2.3445 N   0  0  0  0  0  0  0  0  0  0  0  0
    9.9822   -2.0455    2.3130 C   0  0  0  0  0  0  0  0  0  0  0  0
    9.1915   -2.9904    1.0408 Cl  0  0  0  0  0  0  0  0  0  0  0  0
    4.7068    3.7043   -0.6871 H   0  0  0  0  0  0  0  0  0  0  0  0
    6.2708    2.9129   -0.3298 H   0  0  0  0  0  0  0  0  0  0  0  0
    5.2384    3.5199    1.0111 H   0  0  0  0  0  0  0  0  0  0  0  0
    5.3204    1.0969    2.2276 H   0  0  0  0  0  0  0  0  0  0  0  0
    6.4011    0.5556    0.9271 H   0  0  0  0  0  0  0  0  0  0  0  0
    3.7624   -0.8319    1.6525 H   0  0  0  0  0  0  0  0  0  0  0  0
    6.1428   -1.8609   -0.0144 H   0  0  0  0  0  0  0  0  0  0  0  0
    4.6003   -1.2936   -0.6824 H   0  0  0  0  0  0  0  0  0  0  0  0
    4.6388   -2.7553    0.3358 H   0  0  0  0  0  0  0  0  0  0  0  0
    4.9900   -2.5191    2.8676 H   0  0  0  0  0  0  0  0  0  0  0  0
    5.2469   -0.9156    3.5964 H   0  0  0  0  0  0  0  0  0  0  0  0
    7.2745   -2.4969    2.1204 H   0  0  0  0  0  0  0  0  0  0  0  0
    9.5410    0.2031    4.7945 H   0  0  0  0  0  0  0  0  0  0  0  0
   13.1017   -1.6958    3.2465 H   0  0  0  0  0  0  0  0  0  0  0  0
  1  2  1  0
  1 18  1  0
  1 19  1  0
  1 20  1  0
  2  3  1  0
  3  4  1  0
  3 21  1  0
  3 22  1  0
  4  5  1  0
  4  6  1  0
  4 23  1  1
  5 24  1  0
  5 25  1  0
  5 26  1  0
  6  7  1  0
  6 27  1  0
  6 28  1  0
  7  8  1  0
  7 29  1  0
  8  9  2  0
  8 10  1  0
 10 11  2  0
 10 16  1  0
 11 12  1  0
 11 30  1  0
 12 13  1  0
 12 14  2  0
 14 15  1  0
 14 31  1  0
 15 16  2  0
 16 17  1  0
M  END

