
     RDKit          3D

 50 51  0  0  0  0  0  0  0  0999 V2000
    2.7058    0.9189    0.2291 C   0  0  0  0  0  0  0  0  0  0  0  0
    2.1300   -0.3266    0.5460 O   0  0  0  0  0  0  0  0  0  0  0  0
    2.8732   -1.4558    0.4092 C   0  0  0  0  0  0  0  0  0  0  0  0
    2.2359   -2.6630    0.7474 C   0  0  0  0  0  0  0  0  0  0  0  0
    2.9179   -3.8701    0.6422 C   0  0  0  0  0  0  0  0  0  0  0  0
    4.2540   -3.9227    0.2001 C   0  0  0  0  0  0  0  0  0  0  0  0
    4.9683   -5.2467    0.0508 C   0  0  0  0  0  0  0  0  0  0  0  0
    4.6125   -5.9699   -1.2649 C   0  0  0  0  0  0  0  0  0  0  0  0
    5.2646   -7.2591   -1.4152 N   0  0  0  0  0  0  0  0  0  0  0  0
    4.7077   -8.4166   -0.9542 C   0  0  0  0  0  0  0  0  0  0  0  0
    3.5981   -8.4571   -0.4420 O   0  0  0  0  0  0  0  0  0  0  0  0
    5.5684   -9.6662   -1.1122 C   0  0  0  0  0  0  0  0  0  0  0  0
    4.7047  -10.8955   -1.4057 C   0  0  0  0  0  0  0  0  0  0  0  0
    5.4641  -12.1547   -1.3638 N   0  0  0  0  0  0  0  0  0  0  0  0
    5.5025  -12.9486   -0.1735 C   0  0  0  0  0  0  0  0  0  0  0  0
    6.7205  -13.2396    0.4616 C   0  0  0  0  0  0  0  0  0  0  0  0
    6.7336  -14.0060    1.6294 C   0  0  0  0  0  0  0  0  0  0  0  0
    5.5390  -14.4712    2.1868 C   0  0  0  0  0  0  0  0  0  0  0  0
    4.3234  -14.1764    1.5618 C   0  0  0  0  0  0  0  0  0  0  0  0
    4.3044  -13.4293    0.3823 C   0  0  0  0  0  0  0  0  0  0  0  0
    6.2193  -12.6848   -2.7740 S   0  0  1  0  0  0  0  0  0  0  0  0
    5.0681  -13.8685   -3.4965 C   0  0  0  0  0  0  0  0  0  0  0  0
    6.2804  -11.5267   -3.6705 O   0  0  0  0  0  0  0  0  0  0  0  0
    7.4236  -13.4347   -2.4190 O   0  0  0  0  0  0  0  0  0  0  0  0
    4.8727   -2.7126   -0.1329 C   0  0  0  0  0  0  0  0  0  0  0  0
    4.2033   -1.4861   -0.0329 C   0  0  0  0  0  0  0  0  0  0  0  0
    1.9332    1.6781    0.4121 H   0  0  0  0  0  0  0  0  0  0  0  0
    3.0151    0.9737   -0.8309 H   0  0  0  0  0  0  0  0  0  0  0  0
    3.5826    1.1425    0.8642 H   0  0  0  0  0  0  0  0  0  0  0  0
    1.2017   -2.6227    1.0956 H   0  0  0  0  0  0  0  0  0  0  0  0
    2.4054   -4.7975    0.9149 H   0  0  0  0  0  0  0  0  0  0  0  0
    4.7047   -5.9163    0.8856 H   0  0  0  0  0  0  0  0  0  0  0  0
    6.0600   -5.0932    0.0937 H   0  0  0  0  0  0  0  0  0  0  0  0
    4.8760   -5.3358   -2.1267 H   0  0  0  0  0  0  0  0  0  0  0  0
    3.5279   -6.1465   -1.3008 H   0  0  0  0  0  0  0  0  0  0  0  0
    6.2011   -7.2934   -1.7995 H   0  0  0  0  0  0  0  0  0  0  0  0
    6.1040   -9.8231   -0.1590 H   0  0  0  0  0  0  0  0  0  0  0  0
    6.3248   -9.5482   -1.9025 H   0  0  0  0  0  0  0  0  0  0  0  0
    4.2297  -10.7855   -2.3912 H   0  0  0  0  0  0  0  0  0  0  0  0
    3.8981  -10.9490   -0.6628 H   0  0  0  0  0  0  0  0  0  0  0  0
    7.6481  -12.8752    0.0214 H   0  0  0  0  0  0  0  0  0  0  0  0
    7.6877  -14.2315    2.1125 H   0  0  0  0  0  0  0  0  0  0  0  0
    5.5545  -15.0614    3.1064 H   0  0  0  0  0  0  0  0  0  0  0  0
    3.3840  -14.5369    1.9883 H   0  0  0  0  0  0  0  0  0  0  0  0
    3.3548  -13.2092   -0.1113 H   0  0  0  0  0  0  0  0  0  0  0  0
    4.1253  -13.3567   -3.7289 H   0  0  0  0  0  0  0  0  0  0  0  0
    4.9160  -14.6901   -2.7844 H   0  0  0  0  0  0  0  0  0  0  0  0
    5.5415  -14.2404   -4.4155 H   0  0  0  0  0  0  0  0  0  0  0  0
    5.9123   -2.7160   -0.4750 H   0  0  0  0  0  0  0  0  0  0  0  0
    4.7296   -0.5688   -0.2978 H   0  0  0  0  0  0  0  0  0  0  0  0
  1  2  1  0
  1 27  1  0
  1 28  1  0
  1 29  1  0
  2  3  1  0
  3  4  2  0
  3 26  1  0
  4  5  1  0
  4 30  1  0
  5  6  2  0
  5 31  1  0
  6  7  1  0
  6 25  1  0
  7  8  1  0
  7 32  1  0
  7 33  1  0
  8  9  1  0
  8 34  1  0
  8 35  1  0
  9 10  1  0
  9 36  1  0
 10 11  2  0
 10 12  1  0
 12 13  1  0
 12 37  1  0
 12 38  1  0
 13 14  1  0
 13 39  1  0
 13 40  1  0
 14 15  1  0
 21 14  1  1
 15 16  2  0
 15 20  1  0
 16 17  1  0
 16 41  1  0
 17 18  2  0
 17 42  1  0
 18 19  1  0
 18 43  1  0
 19 20  2  0
 19 44  1  0
 20 45  1  0
 21 22  1  0
 21 23  2  0
 21 24  2  0
 22 46  1  0
 22 47  1  0
 22 48  1  0
 25 26  2  0
 25 49  1  0
 26 50  1  0
M  END

