
     RDKit          3D

 37 38  0  0  0  0  0  0  0  0999 V2000
    5.2944   -1.6757    0.6713 C   0  0  0  0  0  0  0  0  0  0  0  0
    4.4431   -1.8216   -0.5779 C   0  0  0  0  0  0  0  0  0  0  0  0
    4.9219   -0.9746   -1.6448 O   0  0  0  0  0  0  0  0  0  0  0  0
    4.5024    0.2994   -1.6682 C   0  0  0  0  0  0  0  0  0  0  0  0
    3.7105    0.7762   -0.8992 O   0  0  0  0  0  0  0  0  0  0  0  0
    5.1741    1.0450   -2.8377 C   0  0  1  0  0  0  0  0  0  0  0  0
    4.6849    2.4757   -2.9996 C   0  0  0  0  0  0  0  0  0  0  0  0
    4.8704    3.4265   -1.9832 C   0  0  0  0  0  0  0  0  0  0  0  0
    4.4235    4.7378   -2.1435 C   0  0  0  0  0  0  0  0  0  0  0  0
    3.7874    5.0954   -3.3312 C   0  0  0  0  0  0  0  0  0  0  0  0
    3.3564    6.3552   -3.4883 F   0  0  0  0  0  0  0  0  0  0  0  0
    3.5901    4.1767   -4.3579 C   0  0  0  0  0  0  0  0  0  0  0  0
    4.0444    2.8670   -4.1827 C   0  0  0  0  0  0  0  0  0  0  0  0
    6.6702    0.9568   -2.7138 C   0  0  0  0  0  0  0  0  0  0  0  0
    7.5293    0.6446   -3.6323 N   0  0  0  0  0  0  0  0  0  0  0  0
    8.7351    0.7720   -2.9683 C   0  0  0  0  0  0  0  0  0  0  0  0
    9.9341    0.5824   -3.5860 N   0  0  0  0  0  0  0  0  0  0  0  0
   11.1453    0.6657   -2.7941 C   0  0  0  0  0  0  0  0  0  0  0  0
   10.0020   -0.1032   -4.8618 C   0  0  0  0  0  0  0  0  0  0  0  0
    8.6197    1.1219   -1.6965 N   0  0  0  0  0  0  0  0  0  0  0  0
    7.2275    1.2608   -1.5414 O   0  0  0  0  0  0  0  0  0  0  0  0
    4.9555   -2.3905    1.4382 H   0  0  0  0  0  0  0  0  0  0  0  0
    5.2096   -0.6613    1.0880 H   0  0  0  0  0  0  0  0  0  0  0  0
    6.3539   -1.8784    0.4521 H   0  0  0  0  0  0  0  0  0  0  0  0
    3.3909   -1.5733   -0.3749 H   0  0  0  0  0  0  0  0  0  0  0  0
    4.5004   -2.8397   -0.9883 H   0  0  0  0  0  0  0  0  0  0  0  0
    4.9346    0.4751   -3.7470 H   0  0  0  0  0  0  0  0  0  0  0  0
    5.3695    3.1402   -1.0561 H   0  0  0  0  0  0  0  0  0  0  0  0
    4.5589    5.4870   -1.3612 H   0  0  0  0  0  0  0  0  0  0  0  0
    3.0889    4.4925   -5.2747 H   0  0  0  0  0  0  0  0  0  0  0  0
    3.8943    2.1394   -4.9849 H   0  0  0  0  0  0  0  0  0  0  0  0
   11.0271    1.4276   -2.0121 H   0  0  0  0  0  0  0  0  0  0  0  0
   11.9880    0.9474   -3.4445 H   0  0  0  0  0  0  0  0  0  0  0  0
   11.3935   -0.2943   -2.2996 H   0  0  0  0  0  0  0  0  0  0  0  0
    9.0368   -0.0201   -5.3747 H   0  0  0  0  0  0  0  0  0  0  0  0
   10.2454   -1.1780   -4.7448 H   0  0  0  0  0  0  0  0  0  0  0  0
   10.7821    0.3553   -5.4917 H   0  0  0  0  0  0  0  0  0  0  0  0
  1  2  1  0
  1 22  1  0
  1 23  1  0
  1 24  1  0
  2  3  1  0
  2 25  1  0
  2 26  1  0
  3  4  1  0
  4  5  2  0
  4  6  1  0
  6  7  1  0
  6 14  1  0
  6 27  1  6
  7  8  2  0
  7 13  1  0
  8  9  1  0
  8 28  1  0
  9 10  2  0
  9 29  1  0
 10 11  1  0
 10 12  1  0
 12 13  2  0
 12 30  1  0
 13 31  1  0
 14 15  2  0
 14 21  1  0
 15 16  1  0
 16 17  1  0
 16 20  2  0
 17 18  1  0
 17 19  1  0
 18 32  1  0
 18 33  1  0
 18 34  1  0
 19 35  1  0
 19 36  1  0
 19 37  1  0
 20 21  1  0
M  END

