
     RDKit          3D

 41 42  0  0  0  0  0  0  0  0999 V2000
    5.6227   -1.8127   -0.3413 C   0  0  0  0  0  0  0  0  0  0  0  0
    4.6187   -0.6551   -0.2392 C   0  0  0  0  0  0  0  0  0  0  0  0
    3.8396   -0.6396    1.0432 C   0  0  0  0  0  0  0  0  0  0  0  0
    4.0249    0.3119    1.9526 N   0  0  0  0  0  0  0  0  0  0  0  0
    3.1809    0.0181    2.9575 N   0  0  0  0  0  0  0  0  0  0  0  0
    3.1604    0.6162    3.7742 H   0  0  0  0  0  0  0  0  0  0  0  0
    2.4312   -1.0953    2.7378 C   0  0  0  0  0  0  0  0  0  0  0  0
    1.3808   -1.5936    3.6828 C   0  0  0  0  0  0  0  0  0  0  0  0
    0.1648   -0.6613    3.8078 C   0  0  0  0  0  0  0  0  0  0  0  0
    2.8422   -1.5596    1.4919 C   0  0  0  0  0  0  0  0  0  0  0  0
    2.3607   -2.7189    0.8410 N   0  0  0  0  0  0  0  0  0  0  0  0
    1.7221   -2.7215   -0.3801 C   0  0  0  0  0  0  0  0  0  0  0  0
    1.5240   -1.6959   -1.0118 O   0  0  0  0  0  0  0  0  0  0  0  0
    1.2837   -4.1055   -0.8656 C   0  0  1  0  0  0  0  0  0  0  0  0
   -0.2604   -4.2140   -0.9281 C   0  0  0  0  0  0  0  0  0  0  0  0
   -0.8777   -3.4487   -2.1062 C   0  0  0  0  0  0  0  0  0  0  0  0
   -0.2465   -3.8718   -3.4389 C   0  0  0  0  0  0  0  0  0  0  0  0
    1.2780   -3.7023   -3.4137 C   0  0  0  0  0  0  0  0  0  0  0  0
    1.9084   -4.4599   -2.2369 C   0  0  0  0  0  0  0  0  0  0  0  0
    6.1598   -1.7833   -1.3030 H   0  0  0  0  0  0  0  0  0  0  0  0
    5.1191   -2.7905   -0.2712 H   0  0  0  0  0  0  0  0  0  0  0  0
    6.3710   -1.7634    0.4662 H   0  0  0  0  0  0  0  0  0  0  0  0
    3.9053   -0.7038   -1.0780 H   0  0  0  0  0  0  0  0  0  0  0  0
    5.1479    0.3074   -0.3146 H   0  0  0  0  0  0  0  0  0  0  0  0
    1.8225   -1.7618    4.6819 H   0  0  0  0  0  0  0  0  0  0  0  0
    1.0500   -2.5811    3.3250 H   0  0  0  0  0  0  0  0  0  0  0  0
    0.4532    0.3319    4.1885 H   0  0  0  0  0  0  0  0  0  0  0  0
   -0.5803   -1.0804    4.5024 H   0  0  0  0  0  0  0  0  0  0  0  0
   -0.3192   -0.5130    2.8303 H   0  0  0  0  0  0  0  0  0  0  0  0
    2.5048   -3.6132    1.2955 H   0  0  0  0  0  0  0  0  0  0  0  0
    1.6415   -4.8496   -0.1330 H   0  0  0  0  0  0  0  0  0  0  0  0
   -0.6987   -3.8764    0.0268 H   0  0  0  0  0  0  0  0  0  0  0  0
   -0.5121   -5.2863   -1.0225 H   0  0  0  0  0  0  0  0  0  0  0  0
   -0.7246   -2.3681   -1.9574 H   0  0  0  0  0  0  0  0  0  0  0  0
   -1.9671   -3.6234   -2.1246 H   0  0  0  0  0  0  0  0  0  0  0  0
   -0.6802   -3.2873   -4.2676 H   0  0  0  0  0  0  0  0  0  0  0  0
   -0.4958   -4.9312   -3.6425 H   0  0  0  0  0  0  0  0  0  0  0  0
    1.5231   -2.6324   -3.3279 H   0  0  0  0  0  0  0  0  0  0  0  0
    1.7195   -4.0635   -4.3582 H   0  0  0  0  0  0  0  0  0  0  0  0
    2.9983   -4.2908   -2.2076 H   0  0  0  0  0  0  0  0  0  0  0  0
    1.7679   -5.5457   -2.3905 H   0  0  0  0  0  0  0  0  0  0  0  0
  1  2  1  0
  1 20  1  0
  1 21  1  0
  1 22  1  0
  2  3  1  0
  2 23  1  0
  2 24  1  0
  3  4  2  0
  3 10  1  0
  4  5  1  0
  5  6  1  0
  5  7  1  0
  7  8  1  0
  7 10  2  0
  8  9  1  0
  8 25  1  0
  8 26  1  0
  9 27  1  0
  9 28  1  0
  9 29  1  0
 10 11  1  0
 11 12  1  0
 11 30  1  0
 12 13  2  0
 12 14  1  0
 14 15  1  0
 14 19  1  0
 14 31  1  1
 15 16  1  0
 15 32  1  0
 15 33  1  0
 16 17  1  0
 16 34  1  0
 16 35  1  0
 17 18  1  0
 17 36  1  0
 17 37  1  0
 18 19  1  0
 18 38  1  0
 18 39  1  0
 19 40  1  0
 19 41  1  0
M  END

