
     RDKit          3D

 33 36  0  0  0  0  0  0  0  0999 V2000
    2.0723    0.8107    1.0668 S   0  0  0  0  0  0  0  0  0  0  0  0
    3.2047    0.0540   -0.3398 P   0  0  0  0  0  0  0  0  0  0  0  0
    2.8067    0.6359   -2.0402 C   0  0  0  0  0  0  0  0  0  0  0  0
    1.8403    1.6345   -2.2119 C   0  0  0  0  0  0  0  0  0  0  0  0
    1.5337    2.0957   -3.4961 C   0  0  0  0  0  0  0  0  0  0  0  0
    2.1899    1.5619   -4.6084 C   0  0  0  0  0  0  0  0  0  0  0  0
    3.1550    0.5621   -4.4388 C   0  0  0  0  0  0  0  0  0  0  0  0
    3.4638    0.0980   -3.1590 C   0  0  0  0  0  0  0  0  0  0  0  0
    5.0546    0.2569   -0.1348 C   0  0  0  0  0  0  0  0  0  0  0  0
    5.8924    1.3498    0.0558 C   0  0  0  0  0  0  0  0  0  0  0  0
    7.2761    1.1224    0.2434 C   0  0  0  0  0  0  0  0  0  0  0  0
    7.8244   -0.1626    0.2583 C   0  0  0  0  0  0  0  0  0  0  0  0
    7.0002   -1.3000    0.0833 C   0  0  0  0  0  0  0  0  0  0  0  0
    7.3703   -2.7049    0.0854 C   0  0  0  0  0  0  0  0  0  0  0  0
    6.4326   -3.6976   -0.0778 C   0  0  0  0  0  0  0  0  0  0  0  0
    5.0400   -3.3815   -0.2607 C   0  0  0  0  0  0  0  0  0  0  0  0
    3.8008   -4.0255   -0.4320 C   0  0  0  0  0  0  0  0  0  0  0  0
    2.7962   -3.0220   -0.5352 C   0  0  0  0  0  0  0  0  0  0  0  0
    3.4163   -1.7723   -0.4381 C   0  0  0  0  0  0  0  0  0  0  0  0
    4.7494   -2.0368   -0.2749 N   0  0  0  0  0  0  0  0  0  0  0  0
    5.6418   -1.0125   -0.1084 C   0  0  0  0  0  0  0  0  0  0  0  0
    1.3333    2.0361   -1.3306 H   0  0  0  0  0  0  0  0  0  0  0  0
    0.7773    2.8739   -3.6262 H   0  0  0  0  0  0  0  0  0  0  0  0
    1.9484    1.9224   -5.6117 H   0  0  0  0  0  0  0  0  0  0  0  0
    3.6669    0.1405   -5.3076 H   0  0  0  0  0  0  0  0  0  0  0  0
    4.2138   -0.6876   -3.0352 H   0  0  0  0  0  0  0  0  0  0  0  0
    5.4967    2.3683    0.0704 H   0  0  0  0  0  0  0  0  0  0  0  0
    7.9354    1.9813    0.3890 H   0  0  0  0  0  0  0  0  0  0  0  0
    8.8988   -0.2922    0.4132 H   0  0  0  0  0  0  0  0  0  0  0  0
    8.4208   -2.9708    0.2251 H   0  0  0  0  0  0  0  0  0  0  0  0
    6.7359   -4.7464   -0.0661 H   0  0  0  0  0  0  0  0  0  0  0  0
    3.6406   -5.1010   -0.4717 H   0  0  0  0  0  0  0  0  0  0  0  0
    1.7295   -3.1973   -0.6623 H   0  0  0  0  0  0  0  0  0  0  0  0
  1  2  2  0
  2  3  1  0
  2 19  2  0
  3  4  2  0
  3  8  1  0
  4  5  1  0
  4 22  1  0
  5  6  2  0
  5 23  1  0
  6  7  1  0
  6 24  1  0
  7  8  2  0
  7 25  1  0
  8 26  1  0
  9 10  2  0
  9 21  1  0
 10 11  1  0
 10 27  1  0
 11 12  2  0
 11 28  1  0
 12 13  1  0
 12 29  1  0
 13 14  1  0
 13 21  2  0
 14 15  2  0
 14 30  1  0
 15 16  1  0
 15 31  1  0
 16 17  1  0
 16 20  2  0
 17 18  2  0
 17 32  1  0
 18 19  1  0
 18 33  1  0
 19 20  1  0
 20 21  1  0
M  CHG  2   9  -1  20   1
M  END

