
     RDKit          3D

 47 50  0  0  0  0  0  0  0  0999 V2000
    1.4739    0.2995    0.4795 O   0  0  0  0  0  0  0  0  0  0  0  0
    2.1262   -0.0754   -0.4739 C   0  0  0  0  0  0  0  0  0  0  0  0
    2.2788    0.6685   -1.6325 N   0  0  0  0  0  0  0  0  0  0  0  0
    1.6763    1.9093   -1.7622 N   0  0  0  0  0  0  0  0  0  0  0  0
    2.6016    2.9671   -2.1707 C   0  0  0  0  0  0  0  0  0  0  0  0
    2.9337    2.9367   -3.6725 C   0  0  0  0  0  0  0  0  0  0  0  0
    1.6474    2.9420   -4.5129 C   0  0  0  0  0  0  0  0  0  0  0  0
    0.6904    1.8258   -4.0663 C   0  0  0  0  0  0  0  0  0  0  0  0
    0.4403    1.8993   -2.5509 C   0  0  0  0  0  0  0  0  0  0  0  0
    2.8847   -1.3641   -0.5198 C   0  0  0  0  0  0  0  0  0  0  0  0
    4.1556   -1.5052   -1.0552 C   0  0  0  0  0  0  0  0  0  0  0  0
    4.5238   -2.8061   -0.8969 N   0  0  0  0  0  0  0  0  0  0  0  0
    5.7562   -3.4186   -1.2536 C   0  0  0  0  0  0  0  0  0  0  0  0
    6.6089   -2.8106   -2.1856 C   0  0  0  0  0  0  0  0  0  0  0  0
    7.8227   -3.4192   -2.5123 C   0  0  0  0  0  0  0  0  0  0  0  0
    8.1867   -4.6351   -1.9272 C   0  0  0  0  0  0  0  0  0  0  0  0
    7.3246   -5.2409   -1.0074 C   0  0  0  0  0  0  0  0  0  0  0  0
    6.1133   -4.6395   -0.6642 C   0  0  0  0  0  0  0  0  0  0  0  0
    3.5587   -3.5205   -0.2926 N   0  0  0  0  0  0  0  0  0  0  0  0
    2.5538   -2.6817   -0.0411 C   0  0  0  0  0  0  0  0  0  0  0  0
    1.3266   -3.2261    0.5786 C   0  0  0  0  0  0  0  0  0  0  0  0
    1.0298   -4.5939    0.4335 C   0  0  0  0  0  0  0  0  0  0  0  0
   -0.1126   -5.1114    1.0364 C   0  0  0  0  0  0  0  0  0  0  0  0
   -0.9307   -4.2435    1.7683 C   0  0  0  0  0  0  0  0  0  0  0  0
   -0.6627   -2.9468    1.9237 N   0  0  0  0  0  0  0  0  0  0  0  0
    0.4372   -2.4502    1.3491 C   0  0  0  0  0  0  0  0  0  0  0  0
    2.6159    0.1795   -2.4626 H   0  0  0  0  0  0  0  0  0  0  0  0
    3.5075    2.8890   -1.5513 H   0  0  0  0  0  0  0  0  0  0  0  0
    2.1225    3.9314   -1.9234 H   0  0  0  0  0  0  0  0  0  0  0  0
    3.5248    2.0302   -3.9036 H   0  0  0  0  0  0  0  0  0  0  0  0
    3.5764    3.7948   -3.9324 H   0  0  0  0  0  0  0  0  0  0  0  0
    1.8831    2.8475   -5.5859 H   0  0  0  0  0  0  0  0  0  0  0  0
    1.1427    3.9186   -4.3907 H   0  0  0  0  0  0  0  0  0  0  0  0
    1.1207    0.8401   -4.3260 H   0  0  0  0  0  0  0  0  0  0  0  0
   -0.2682    1.8904   -4.6079 H   0  0  0  0  0  0  0  0  0  0  0  0
   -0.1864    1.0680   -2.1956 H   0  0  0  0  0  0  0  0  0  0  0  0
   -0.1022    2.8316   -2.3136 H   0  0  0  0  0  0  0  0  0  0  0  0
    4.8234   -0.7595   -1.4771 H   0  0  0  0  0  0  0  0  0  0  0  0
    6.3268   -1.8745   -2.6700 H   0  0  0  0  0  0  0  0  0  0  0  0
    8.4828   -2.9400   -3.2394 H   0  0  0  0  0  0  0  0  0  0  0  0
    9.1354   -5.1092   -2.1888 H   0  0  0  0  0  0  0  0  0  0  0  0
    7.5987   -6.1922   -0.5445 H   0  0  0  0  0  0  0  0  0  0  0  0
    5.4329   -5.0964    0.0536 H   0  0  0  0  0  0  0  0  0  0  0  0
    1.6980   -5.2282   -0.1519 H   0  0  0  0  0  0  0  0  0  0  0  0
   -0.3723   -6.1683    0.9384 H   0  0  0  0  0  0  0  0  0  0  0  0
   -1.8428   -4.6181    2.2496 H   0  0  0  0  0  0  0  0  0  0  0  0
    0.6384   -1.3864    1.4993 H   0  0  0  0  0  0  0  0  0  0  0  0
  1  2  2  0
  2  3  1  0
  2 10  1  0
  3  4  1  0
  3 27  1  0
  4  5  1  0
  4  9  1  0
  5  6  1  0
  5 28  1  0
  5 29  1  0
  6  7  1  0
  6 30  1  0
  6 31  1  0
  7  8  1  0
  7 32  1  0
  7 33  1  0
  8  9  1  0
  8 34  1  0
  8 35  1  0
  9 36  1  0
  9 37  1  0
 10 11  2  0
 10 20  1  0
 11 12  1  0
 11 38  1  0
 12 13  1  0
 12 19  1  0
 13 14  2  0
 13 18  1  0
 14 15  1  0
 14 39  1  0
 15 16  2  0
 15 40  1  0
 16 17  1  0
 16 41  1  0
 17 18  2  0
 17 42  1  0
 18 43  1  0
 19 20  2  0
 20 21  1  0
 21 22  2  0
 21 26  1  0
 22 23  1  0
 22 44  1  0
 23 24  2  0
 23 45  1  0
 24 25  1  0
 24 46  1  0
 25 26  2  0
 26 47  1  0
M  END

