
     RDKit          3D

 61 60  0  0  0  0  0  0  0  0999 V2000
    0.8893    0.5057   -0.5447 C   0  0  0  0  0  0  0  0  0  0  0  0
    2.4015    0.3990   -0.3420 C   0  0  0  0  0  0  0  0  0  0  0  0
    2.8962   -1.0391   -0.1586 C   0  0  0  0  0  0  0  0  0  0  0  0
    4.4096   -1.1554    0.0449 C   0  0  0  0  0  0  0  0  0  0  0  0
    4.8994   -2.5950    0.2305 C   0  0  0  0  0  0  0  0  0  0  0  0
    6.4163   -2.7015    0.4166 C   0  0  0  0  0  0  0  0  0  0  0  0
    6.9277   -4.1296    0.6922 C   0  0  1  0  0  0  0  0  0  0  0  0
    6.4736   -5.0450   -0.3483 N   0  0  0  0  0  0  0  0  0  0  0  0
    5.5737   -6.0445   -0.1329 C   0  0  0  0  0  0  0  0  0  0  0  0
    5.0586   -6.3164    0.9333 O   0  0  0  0  0  0  0  0  0  0  0  0
    5.3338   -6.7105   -1.2911 O   0  0  0  0  0  0  0  0  0  0  0  0
    4.3691   -7.7771   -1.2339 C   0  0  0  0  0  0  0  0  0  0  0  0
    2.9369   -7.2777   -1.3641 C   0  0  0  0  0  0  0  0  0  0  0  0
    1.5819   -8.6191   -1.4014 Si  0  0  1  0  0  4  0  0  0  0  0  0
   -0.0902   -7.7492   -1.5614 C   0  0  0  0  0  0  0  0  0  0  0  0
    1.8430   -9.7667   -2.8864 C   0  0  0  0  0  0  0  0  0  0  0  0
    1.6261   -9.6298    0.1977 C   0  0  0  0  0  0  0  0  0  0  0  0
    8.4727   -4.2188    0.8622 C   0  0  1  0  0  0  0  0  0  0  0  0
    9.0339   -3.2073    1.8880 C   0  0  0  0  0  0  0  0  0  0  0  0
    8.5355   -3.3655    3.3280 C   0  0  0  0  0  0  0  0  0  0  0  0
    8.9105   -5.6702    1.1556 C   0  0  0  0  0  0  0  0  0  0  0  0
   10.4231   -5.8988    1.2023 C   0  0  0  0  0  0  0  0  0  0  0  0
    0.5695    1.5523   -0.6726 H   0  0  0  0  0  0  0  0  0  0  0  0
    0.3392    0.0929    0.3177 H   0  0  0  0  0  0  0  0  0  0  0  0
    0.5642   -0.0530   -1.4386 H   0  0  0  0  0  0  0  0  0  0  0  0
    2.6990    0.9995    0.5372 H   0  0  0  0  0  0  0  0  0  0  0  0
    2.9223    0.8546   -1.2041 H   0  0  0  0  0  0  0  0  0  0  0  0
    2.5992   -1.6416   -1.0375 H   0  0  0  0  0  0  0  0  0  0  0  0
    2.3765   -1.4961    0.7043 H   0  0  0  0  0  0  0  0  0  0  0  0
    4.7063   -0.5501    0.9219 H   0  0  0  0  0  0  0  0  0  0  0  0
    4.9293   -0.7005   -0.8195 H   0  0  0  0  0  0  0  0  0  0  0  0
    4.5909   -3.1984   -0.6405 H   0  0  0  0  0  0  0  0  0  0  0  0
    4.3928   -3.0484    1.1015 H   0  0  0  0  0  0  0  0  0  0  0  0
    6.7141   -2.0492    1.2527 H   0  0  0  0  0  0  0  0  0  0  0  0
    6.9296   -2.2978   -0.4779 H   0  0  0  0  0  0  0  0  0  0  0  0
    6.4488   -4.4982    1.6126 H   0  0  0  0  0  0  0  0  0  0  0  0
    6.8089   -4.9253   -1.2977 H   0  0  0  0  0  0  0  0  0  0  0  0
    4.5092   -8.3246   -0.2900 H   0  0  0  0  0  0  0  0  0  0  0  0
    4.6447   -8.4355   -2.0712 H   0  0  0  0  0  0  0  0  0  0  0  0
    2.8441   -6.6693   -2.2822 H   0  0  0  0  0  0  0  0  0  0  0  0
    2.7167   -6.6090   -0.5140 H   0  0  0  0  0  0  0  0  0  0  0  0
   -0.1459   -7.1519   -2.4868 H   0  0  0  0  0  0  0  0  0  0  0  0
   -0.2698   -7.0690   -0.7124 H   0  0  0  0  0  0  0  0  0  0  0  0
   -0.9165   -8.4793   -1.5850 H   0  0  0  0  0  0  0  0  0  0  0  0
    1.8420   -9.2034   -3.8346 H   0  0  0  0  0  0  0  0  0  0  0  0
    1.0399  -10.5204   -2.9467 H   0  0  0  0  0  0  0  0  0  0  0  0
    2.8000  -10.3108   -2.8210 H   0  0  0  0  0  0  0  0  0  0  0  0
    1.5075   -8.9814    1.0815 H   0  0  0  0  0  0  0  0  0  0  0  0
    2.5781  -10.1743    0.3109 H   0  0  0  0  0  0  0  0  0  0  0  0
    0.8136  -10.3755    0.2163 H   0  0  0  0  0  0  0  0  0  0  0  0
    8.9124   -3.9390   -0.1170 H   0  0  0  0  0  0  0  0  0  0  0  0
    8.8244   -2.1826    1.5410 H   0  0  0  0  0  0  0  0  0  0  0  0
   10.1334   -3.2869    1.8802 H   0  0  0  0  0  0  0  0  0  0  0  0
    7.4443   -3.2337    3.4095 H   0  0  0  0  0  0  0  0  0  0  0  0
    9.0034   -2.6153    3.9855 H   0  0  0  0  0  0  0  0  0  0  0  0
    8.7762   -4.3575    3.7421 H   0  0  0  0  0  0  0  0  0  0  0  0
    8.4817   -6.3198    0.3770 H   0  0  0  0  0  0  0  0  0  0  0  0
    8.4533   -6.0080    2.1021 H   0  0  0  0  0  0  0  0  0  0  0  0
   10.9129   -5.5426    0.2797 H   0  0  0  0  0  0  0  0  0  0  0  0
   10.6524   -6.9717    1.3031 H   0  0  0  0  0  0  0  0  0  0  0  0
   10.9038   -5.3846    2.0497 H   0  0  0  0  0  0  0  0  0  0  0  0
  1  2  1  0
  1 23  1  0
  1 24  1  0
  1 25  1  0
  2  3  1  0
  2 26  1  0
  2 27  1  0
  3  4  1  0
  3 28  1  0
  3 29  1  0
  4  5  1  0
  4 30  1  0
  4 31  1  0
  5  6  1  0
  5 32  1  0
  5 33  1  0
  6  7  1  0
  6 34  1  0
  6 35  1  0
  7  8  1  0
  7 18  1  0
  7 36  1  1
  8  9  1  0
  8 37  1  0
  9 10  2  0
  9 11  1  0
 11 12  1  0
 12 13  1  0
 12 38  1  0
 12 39  1  0
 14 13  1  1
 13 40  1  0
 13 41  1  0
 14 15  1  0
 14 16  1  0
 14 17  1  0
 15 42  1  0
 15 43  1  0
 15 44  1  0
 16 45  1  0
 16 46  1  0
 16 47  1  0
 17 48  1  0
 17 49  1  0
 17 50  1  0
 18 19  1  0
 18 21  1  0
 18 51  1  6
 19 20  1  0
 19 52  1  0
 19 53  1  0
 20 54  1  0
 20 55  1  0
 20 56  1  0
 21 22  1  0
 21 57  1  0
 21 58  1  0
 22 59  1  0
 22 60  1  0
 22 61  1  0
M  END

