
     RDKit          3D

 52 56  0  0  0  0  0  0  0  0999 V2000
   -1.9537   -3.9931    7.7638 C   0  0  0  0  0  0  0  0  0  0  0  0
   -1.1992   -3.1127    6.7979 C   0  0  0  0  0  0  0  0  0  0  0  0
    0.0915   -2.6567    7.0796 C   0  0  0  0  0  0  0  0  0  0  0  0
    0.8010   -1.8336    6.1915 C   0  0  0  0  0  0  0  0  0  0  0  0
    2.1679   -1.3263    6.5833 C   0  0  0  0  0  0  0  0  0  0  0  0
    0.2034   -1.4599    4.9655 C   0  0  0  0  0  0  0  0  0  0  0  0
    0.9212   -0.6176    3.9706 C   0  0  0  0  0  0  0  0  0  0  0  0
    1.9597   -1.0214    3.1791 C   0  0  0  0  0  0  0  0  0  0  0  0
    2.5569   -2.2162    3.1857 O   0  0  0  0  0  0  0  0  0  0  0  0
    2.3553   -0.0308    2.1188 C   0  0  2  0  0  0  0  0  0  0  0  0
    2.1883   -0.5024    1.1363 H   0  0  0  0  0  0  0  0  0  0  0  0
    3.7396    0.7020    2.0359 C   0  0  1  0  0  0  0  0  0  0  0  0
    3.3396    1.9454    1.4456 O   0  0  0  0  0  0  0  0  0  0  0  0
    2.3962    2.3315    2.4631 C   0  0  2  0  0  0  0  0  0  0  0  0
    1.9753    3.3156    2.2266 H   0  0  0  0  0  0  0  0  0  0  0  0
    3.2300    2.2656    3.7678 C   0  0  0  0  0  0  0  0  0  0  0  0
    4.3261    1.2283    3.3708 C   0  0  1  0  0  0  0  0  0  0  0  0
    4.8525    0.2812    4.4269 C   0  0  0  0  0  0  0  0  0  0  0  0
    5.0228    0.7220    5.7518 C   0  0  0  0  0  0  0  0  0  0  0  0
    5.6282   -0.0874    6.7160 C   0  0  0  0  0  0  0  0  0  0  0  0
    6.0758   -1.3653    6.3848 C   0  0  0  0  0  0  0  0  0  0  0  0
    5.9115   -1.8260    5.0666 C   0  0  0  0  0  0  0  0  0  0  0  0
    6.3542   -3.1449    4.7040 C   0  0  0  0  0  0  0  0  0  0  0  0
    6.7066   -4.2124    4.4131 N   0  0  0  0  0  0  0  0  0  0  0  0
    5.3085   -1.0021    4.0977 C   0  0  0  0  0  0  0  0  0  0  0  0
    1.3947    1.1580    2.3763 C   0  0  2  0  0  0  0  0  0  0  0  0
    0.7129    1.3330    1.5300 H   0  0  0  0  0  0  0  0  0  0  0  0
    0.5505    0.7626    3.5937 C   0  0  0  0  0  0  0  0  0  0  0  0
   -0.2929    1.4674    4.1127 O   0  0  0  0  0  0  0  0  0  0  0  0
   -1.1126   -1.9027    4.6682 C   0  0  0  0  0  0  0  0  0  0  0  0
   -1.8011   -1.4975    3.3871 C   0  0  0  0  0  0  0  0  0  0  0  0
   -1.7826   -2.7177    5.5858 C   0  0  0  0  0  0  0  0  0  0  0  0
   -1.3507   -4.2316    8.6522 H   0  0  0  0  0  0  0  0  0  0  0  0
   -2.2499   -4.9445    7.2910 H   0  0  0  0  0  0  0  0  0  0  0  0
   -2.8812   -3.5047    8.1073 H   0  0  0  0  0  0  0  0  0  0  0  0
    0.5630   -2.9379    8.0259 H   0  0  0  0  0  0  0  0  0  0  0  0
    2.4450   -1.6737    7.5888 H   0  0  0  0  0  0  0  0  0  0  0  0
    2.1956   -0.2255    6.5857 H   0  0  0  0  0  0  0  0  0  0  0  0
    2.9573   -1.6556    5.8903 H   0  0  0  0  0  0  0  0  0  0  0  0
    2.1333   -2.7842    3.8526 H   0  0  0  0  0  0  0  0  0  0  0  0
    4.4663    0.2043    1.3816 H   0  0  0  0  0  0  0  0  0  0  0  0
    2.6262    1.9468    4.6294 H   0  0  0  0  0  0  0  0  0  0  0  0
    3.6645    3.2458    4.0094 H   0  0  0  0  0  0  0  0  0  0  0  0
    5.2030    1.8102    3.0372 H   0  0  0  0  0  0  0  0  0  0  0  0
    4.6861    1.7223    6.0338 H   0  0  0  0  0  0  0  0  0  0  0  0
    5.7513    0.2833    7.7364 H   0  0  0  0  0  0  0  0  0  0  0  0
    6.5479   -2.0068    7.1310 H   0  0  0  0  0  0  0  0  0  0  0  0
    5.1964   -1.3895    3.0851 H   0  0  0  0  0  0  0  0  0  0  0  0
   -1.1802   -1.7124    2.5024 H   0  0  0  0  0  0  0  0  0  0  0  0
   -2.0071   -0.4152    3.3812 H   0  0  0  0  0  0  0  0  0  0  0  0
   -2.7573   -2.0271    3.2668 H   0  0  0  0  0  0  0  0  0  0  0  0
   -2.7952   -3.0566    5.3456 H   0  0  0  0  0  0  0  0  0  0  0  0
  1  2  1  0
  1 33  1  0
  1 34  1  0
  1 35  1  0
  2  3  2  0
  2 32  1  0
  3  4  1  0
  3 36  1  0
  4  5  1  0
  4  6  2  0
  5 37  1  0
  5 38  1  0
  5 39  1  0
  6  7  1  0
  6 30  1  0
  7  8  2  0
  7 28  1  0
  8  9  1  0
  8 10  1  0
  9 40  1  0
 10 11  1  6
 10 12  1  0
 10 26  1  0
 12 13  1  0
 12 17  1  0
 12 41  1  6
 13 14  1  0
 14 15  1  6
 14 16  1  0
 14 26  1  0
 16 17  1  0
 16 42  1  0
 16 43  1  0
 17 18  1  0
 17 44  1  6
 18 19  2  0
 18 25  1  0
 19 20  1  0
 19 45  1  0
 20 21  2  0
 20 46  1  0
 21 22  1  0
 21 47  1  0
 22 23  1  0
 22 25  2  0
 23 24  3  0
 25 48  1  0
 26 27  1  6
 26 28  1  0
 28 29  2  0
 30 31  1  0
 30 32  2  0
 31 49  1  0
 31 50  1  0
 31 51  1  0
 32 52  1  0
M  END

