
     RDKit          3D

 65 67  0  0  0  0  0  0  0  0999 V2000
    1.1595    0.5239    0.4028 C   0  0  0  0  0  0  0  0  0  0  0  0
    2.6242    0.2773    0.1369 C   0  0  0  0  0  0  0  0  0  0  0  0
    3.4163    1.3608    0.1820 N   0  0  0  0  0  0  0  0  0  0  0  0
    4.7301    1.1712    0.0479 C   0  0  0  0  0  0  0  0  0  0  0  0
    5.6381    2.3720    0.1498 C   0  0  0  0  0  0  0  0  0  0  0  0
    6.3354    2.7472   -1.1779 C   0  0  1  0  0  0  0  0  0  0  0  0
    5.3298    3.1805   -2.2512 C   0  0  0  0  0  0  0  0  0  0  0  0
    7.3937    3.8304   -0.9408 C   0  0  0  0  0  0  0  0  0  0  0  0
    5.3087   -0.0092   -0.1907 N   0  0  0  0  0  0  0  0  0  0  0  0
    4.5383   -1.0972   -0.2920 C   0  0  0  0  0  0  0  0  0  0  0  0
    5.1961   -2.3102   -0.5175 N   0  0  0  0  0  0  0  0  0  0  0  0
    6.6448   -2.3477   -0.2977 C   0  0  0  0  0  0  0  0  0  0  0  0
    7.0959   -3.7873   -0.0634 C   0  0  0  0  0  0  0  0  0  0  0  0
    6.6848   -4.6604   -1.1594 N   0  0  0  0  0  0  0  0  0  0  0  0
    7.6191   -5.4949   -1.7418 C   0  0  0  0  0  0  0  0  0  0  0  0
    8.7876   -5.4768   -1.3858 O   0  0  0  0  0  0  0  0  0  0  0  0
    7.1677   -6.4192   -2.8853 C   0  0  1  0  0  0  0  0  0  0  0  0
    7.2027   -5.6462   -4.2176 C   0  0  0  0  0  0  0  0  0  0  0  0
    8.0674   -7.6579   -2.9372 C   0  0  0  0  0  0  0  0  0  0  0  0
    5.2610   -4.5973   -1.4462 C   0  0  0  0  0  0  0  0  0  0  0  0
    4.8118   -3.1486   -1.6533 C   0  0  0  0  0  0  0  0  0  0  0  0
    3.1298   -1.0157   -0.0916 C   0  0  0  0  0  0  0  0  0  0  0  0
    2.2454   -2.2340    0.0471 C   0  0  0  0  0  0  0  0  0  0  0  0
    1.3699   -2.6420   -1.1323 C   0  0  0  0  0  0  0  0  0  0  0  0
    1.3224   -1.9165   -2.3333 C   0  0  0  0  0  0  0  0  0  0  0  0
    0.5030   -2.3211   -3.3893 C   0  0  0  0  0  0  0  0  0  0  0  0
   -0.2765   -3.4655   -3.2355 C   0  0  0  0  0  0  0  0  0  0  0  0
   -1.1448   -3.9018   -4.3480 N   0  0  0  0  0  0  0  0  0  0  0  0
   -1.1364   -3.2301   -5.3669 O   0  0  0  0  0  0  0  0  0  0  0  0
   -1.8151   -4.9076   -4.1782 O   0  0  0  0  0  0  0  0  0  0  0  0
   -0.2567   -4.2115   -2.0548 C   0  0  0  0  0  0  0  0  0  0  0  0
    0.5666   -3.7926   -1.0136 C   0  0  0  0  0  0  0  0  0  0  0  0
    0.9739    1.6053    0.3960 H   0  0  0  0  0  0  0  0  0  0  0  0
    0.8719    0.1357    1.3956 H   0  0  0  0  0  0  0  0  0  0  0  0
    0.5076    0.0360   -0.3372 H   0  0  0  0  0  0  0  0  0  0  0  0
    6.4151    2.1440    0.8991 H   0  0  0  0  0  0  0  0  0  0  0  0
    5.0450    3.2220    0.5203 H   0  0  0  0  0  0  0  0  0  0  0  0
    6.8491    1.8362   -1.5336 H   0  0  0  0  0  0  0  0  0  0  0  0
    4.7886    4.0910   -1.9415 H   0  0  0  0  0  0  0  0  0  0  0  0
    4.5762    2.4018   -2.4481 H   0  0  0  0  0  0  0  0  0  0  0  0
    5.8394    3.4018   -3.2031 H   0  0  0  0  0  0  0  0  0  0  0  0
    6.9339    4.7571   -0.5561 H   0  0  0  0  0  0  0  0  0  0  0  0
    7.9198    4.0844   -1.8754 H   0  0  0  0  0  0  0  0  0  0  0  0
    8.1495    3.5042   -0.2079 H   0  0  0  0  0  0  0  0  0  0  0  0
    6.8893   -1.7284    0.5739 H   0  0  0  0  0  0  0  0  0  0  0  0
    7.1873   -1.9163   -1.1614 H   0  0  0  0  0  0  0  0  0  0  0  0
    6.6572   -4.1557    0.8837 H   0  0  0  0  0  0  0  0  0  0  0  0
    8.1881   -3.8462    0.0158 H   0  0  0  0  0  0  0  0  0  0  0  0
    6.1345   -6.7564   -2.7027 H   0  0  0  0  0  0  0  0  0  0  0  0
    8.2228   -5.2820   -4.4186 H   0  0  0  0  0  0  0  0  0  0  0  0
    6.5315   -4.7726   -4.2143 H   0  0  0  0  0  0  0  0  0  0  0  0
    6.9035   -6.2989   -5.0530 H   0  0  0  0  0  0  0  0  0  0  0  0
    9.1174   -7.3641   -3.0759 H   0  0  0  0  0  0  0  0  0  0  0  0
    7.7670   -8.3151   -3.7685 H   0  0  0  0  0  0  0  0  0  0  0  0
    8.0088   -8.2365   -2.0025 H   0  0  0  0  0  0  0  0  0  0  0  0
    4.6879   -5.0338   -0.6039 H   0  0  0  0  0  0  0  0  0  0  0  0
    5.0186   -5.1736   -2.3456 H   0  0  0  0  0  0  0  0  0  0  0  0
    3.7285   -3.1237   -1.8095 H   0  0  0  0  0  0  0  0  0  0  0  0
    5.2828   -2.7597   -2.5809 H   0  0  0  0  0  0  0  0  0  0  0  0
    1.5720   -2.0798    0.9080 H   0  0  0  0  0  0  0  0  0  0  0  0
    2.8753   -3.0930    0.3312 H   0  0  0  0  0  0  0  0  0  0  0  0
    1.9372   -1.0212   -2.4470 H   0  0  0  0  0  0  0  0  0  0  0  0
    0.4582   -1.7661   -4.3261 H   0  0  0  0  0  0  0  0  0  0  0  0
   -0.8822   -5.1002   -1.9741 H   0  0  0  0  0  0  0  0  0  0  0  0
    0.5881   -4.3695   -0.0846 H   0  0  0  0  0  0  0  0  0  0  0  0
  1  2  1  0
  1 33  1  0
  1 34  1  0
  1 35  1  0
  2  3  2  0
  2 22  1  0
  3  4  1  0
  4  5  1  0
  4  9  2  0
  5  6  1  0
  5 36  1  0
  5 37  1  0
  6  7  1  0
  6  8  1  0
  6 38  1  6
  7 39  1  0
  7 40  1  0
  7 41  1  0
  8 42  1  0
  8 43  1  0
  8 44  1  0
  9 10  1  0
 10 11  1  0
 10 22  2  0
 11 12  1  0
 11 21  1  0
 12 13  1  0
 12 45  1  0
 12 46  1  0
 13 14  1  0
 13 47  1  0
 13 48  1  0
 14 15  1  0
 14 20  1  0
 15 16  2  0
 15 17  1  0
 17 18  1  0
 17 19  1  0
 17 49  1  1
 18 50  1  0
 18 51  1  0
 18 52  1  0
 19 53  1  0
 19 54  1  0
 19 55  1  0
 20 21  1  0
 20 56  1  0
 20 57  1  0
 21 58  1  0
 21 59  1  0
 22 23  1  0
 23 24  1  0
 23 60  1  0
 23 61  1  0
 24 25  2  0
 24 32  1  0
 25 26  1  0
 25 62  1  0
 26 27  2  0
 26 63  1  0
 27 28  1  0
 27 31  1  0
 28 29  2  0
 28 30  1  0
 31 32  2  0
 31 64  1  0
 32 65  1  0
M  CHG  2  28   1  30  -1
M  END

