
     RDKit          3D

 43 44  0  0  0  0  0  0  0  0999 V2000
    3.1031   -1.0251   -1.8457 C   0  0  0  0  0  0  0  0  0  0  0  0
    2.4409    0.2586   -1.3378 C   0  0  0  0  0  0  0  0  0  0  0  0
    3.3806    1.2294   -0.5671 C   0  0  1  0  0  0  0  0  0  0  0  0
    4.6036    1.6505   -1.4222 C   0  0  0  0  0  0  0  0  0  0  0  0
    4.2895    2.2565   -2.7915 C   0  0  0  0  0  0  0  0  0  0  0  0
    2.6258    2.5344   -0.1002 C   0  0  0  0  0  0  0  0  0  0  0  0
    1.1874    2.6223   -0.3337 N   0  0  0  0  0  0  0  0  0  0  0  0
    0.2776    2.0422    0.4866 C   0  0  0  0  0  0  0  0  0  0  0  0
    0.6304    1.3042    1.4128 O   0  0  0  0  0  0  0  0  0  0  0  0
   -1.1731    2.3891    0.2939 C   0  0  0  0  0  0  0  0  0  0  0  0
   -1.8950    2.5701    1.4643 C   0  0  0  0  0  0  0  0  0  0  0  0
   -3.2457    2.9809    1.4406 C   0  0  0  0  0  0  0  0  0  0  0  0
   -3.8767    3.1963    0.2352 C   0  0  0  0  0  0  0  0  0  0  0  0
   -3.1960    2.9758   -0.9937 C   0  0  0  0  0  0  0  0  0  0  0  0
   -3.8627    3.1497   -2.2393 C   0  0  0  0  0  0  0  0  0  0  0  0
   -3.2251    2.8896   -3.4325 C   0  0  0  0  0  0  0  0  0  0  0  0
   -1.8890    2.4229   -3.4250 C   0  0  0  0  0  0  0  0  0  0  0  0
   -1.2084    2.2535   -2.2359 C   0  0  0  0  0  0  0  0  0  0  0  0
   -1.8212    2.5467   -0.9808 C   0  0  0  0  0  0  0  0  0  0  0  0
    3.9190    0.4608    0.6769 C   0  0  0  0  0  0  0  0  0  0  0  0
    5.0480    0.0365    0.7321 O   0  0  0  0  0  0  0  0  0  0  0  0
    3.0638    0.2530    1.6769 O   0  0  0  0  0  0  0  0  0  0  0  0
    2.3532   -1.6712   -2.3289 H   0  0  0  0  0  0  0  0  0  0  0  0
    3.5629   -1.6009   -1.0279 H   0  0  0  0  0  0  0  0  0  0  0  0
    3.8909   -0.8224   -2.5873 H   0  0  0  0  0  0  0  0  0  0  0  0
    1.6010   -0.0143   -0.6809 H   0  0  0  0  0  0  0  0  0  0  0  0
    1.9962    0.8012   -2.1885 H   0  0  0  0  0  0  0  0  0  0  0  0
    5.2600    0.7780   -1.5382 H   0  0  0  0  0  0  0  0  0  0  0  0
    5.1972    2.3665   -0.8278 H   0  0  0  0  0  0  0  0  0  0  0  0
    3.8171    1.5306   -3.4720 H   0  0  0  0  0  0  0  0  0  0  0  0
    5.2165    2.5987   -3.2779 H   0  0  0  0  0  0  0  0  0  0  0  0
    3.6209    3.1329   -2.7303 H   0  0  0  0  0  0  0  0  0  0  0  0
    3.0652    3.3963   -0.6185 H   0  0  0  0  0  0  0  0  0  0  0  0
    2.8031    2.6964    0.9742 H   0  0  0  0  0  0  0  0  0  0  0  0
    0.8536    3.2803   -1.0271 H   0  0  0  0  0  0  0  0  0  0  0  0
   -1.3886    2.4025    2.4166 H   0  0  0  0  0  0  0  0  0  0  0  0
   -3.7800    3.1334    2.3811 H   0  0  0  0  0  0  0  0  0  0  0  0
   -4.9185    3.5266    0.2049 H   0  0  0  0  0  0  0  0  0  0  0  0
   -4.9032    3.4855   -2.2299 H   0  0  0  0  0  0  0  0  0  0  0  0
   -3.7508    3.0240   -4.3808 H   0  0  0  0  0  0  0  0  0  0  0  0
   -1.3943    2.1806   -4.3689 H   0  0  0  0  0  0  0  0  0  0  0  0
   -0.1941    1.8562   -2.2601 H   0  0  0  0  0  0  0  0  0  0  0  0
    2.1638    0.6540    1.5482 H   0  0  0  0  0  0  0  0  0  0  0  0
  1  2  1  0
  1 23  1  0
  1 24  1  0
  1 25  1  0
  2  3  1  0
  2 26  1  0
  2 27  1  0
  3  4  1  0
  3  6  1  0
  3 20  1  1
  4  5  1  0
  4 28  1  0
  4 29  1  0
  5 30  1  0
  5 31  1  0
  5 32  1  0
  6  7  1  0
  6 33  1  0
  6 34  1  0
  7  8  1  0
  7 35  1  0
  8  9  2  0
  8 10  1  0
 10 11  2  0
 10 19  1  0
 11 12  1  0
 11 36  1  0
 12 13  2  0
 12 37  1  0
 13 14  1  0
 13 38  1  0
 14 15  1  0
 14 19  2  0
 15 16  2  0
 15 39  1  0
 16 17  1  0
 16 40  1  0
 17 18  2  0
 17 41  1  0
 18 19  1  0
 18 42  1  0
 20 21  2  0
 20 22  1  0
 22 43  1  0
M  END

