
     RDKit          3D

 37 37  0  0  0  0  0  0  0  0999 V2000
    3.0269   -2.4378   -3.1292 C   0  0  0  0  0  0  0  0  0  0  0  0
    2.7552   -2.2348   -1.6386 C   0  0  0  0  0  0  0  0  0  0  0  0
    3.4229   -1.0094   -0.9710 C   0  0  1  0  0  0  0  0  0  0  0  0
    3.0273    0.3122   -1.6572 C   0  0  0  0  0  0  0  0  0  0  0  0
    3.0528   -1.0432    0.4556 N   0  0  0  0  0  0  0  0  0  0  0  0
    4.9346   -1.1387   -0.9814 C   0  0  0  0  0  0  0  0  0  0  0  0
    5.8122   -0.1879   -0.8534 N   0  0  0  0  0  0  0  0  0  0  0  0
    7.0079   -0.8718   -0.8359 C   0  0  0  0  0  0  0  0  0  0  0  0
    8.3726   -0.1994   -0.7293 C   0  0  1  0  0  0  0  0  0  0  0  0
    9.4334   -1.2250   -0.2988 C   0  0  0  0  0  0  0  0  0  0  0  0
    8.7759    0.4096   -2.0961 C   0  0  0  0  0  0  0  0  0  0  0  0
    7.9201    1.5762   -2.5876 C   0  0  0  0  0  0  0  0  0  0  0  0
    8.3064    0.9027    0.1660 O   0  0  0  0  0  0  0  0  0  0  0  0
    7.9714    0.6489    1.5089 C   0  0  0  0  0  0  0  0  0  0  0  0
    6.8716   -2.1696   -0.9479 N   0  0  0  0  0  0  0  0  0  0  0  0
    5.4975   -2.3512   -1.0490 O   0  0  0  0  0  0  0  0  0  0  0  0
    2.5301   -3.3548   -3.4826 H   0  0  0  0  0  0  0  0  0  0  0  0
    4.1024   -2.5509   -3.3365 H   0  0  0  0  0  0  0  0  0  0  0  0
    2.6472   -1.6047   -3.7411 H   0  0  0  0  0  0  0  0  0  0  0  0
    3.0646   -3.1262   -1.0720 H   0  0  0  0  0  0  0  0  0  0  0  0
    1.6678   -2.1278   -1.4760 H   0  0  0  0  0  0  0  0  0  0  0  0
    1.9323    0.4305   -1.6194 H   0  0  0  0  0  0  0  0  0  0  0  0
    3.3437    0.3516   -2.7106 H   0  0  0  0  0  0  0  0  0  0  0  0
    3.4938    1.1639   -1.1410 H   0  0  0  0  0  0  0  0  0  0  0  0
    2.0354   -1.0351    0.5429 H   0  0  0  0  0  0  0  0  0  0  0  0
    3.3936   -0.2008    0.9213 H   0  0  0  0  0  0  0  0  0  0  0  0
    9.5545   -2.0010   -1.0672 H   0  0  0  0  0  0  0  0  0  0  0  0
    9.1599   -1.7357    0.6350 H   0  0  0  0  0  0  0  0  0  0  0  0
   10.3946   -0.7091   -0.1563 H   0  0  0  0  0  0  0  0  0  0  0  0
    8.7835   -0.4068   -2.8376 H   0  0  0  0  0  0  0  0  0  0  0  0
    9.8208    0.7461   -1.9868 H   0  0  0  0  0  0  0  0  0  0  0  0
    6.8751    1.2800   -2.7598 H   0  0  0  0  0  0  0  0  0  0  0  0
    8.3245    1.9692   -3.5342 H   0  0  0  0  0  0  0  0  0  0  0  0
    7.9163    2.3896   -1.8486 H   0  0  0  0  0  0  0  0  0  0  0  0
    7.8822    1.6277    2.0027 H   0  0  0  0  0  0  0  0  0  0  0  0
    8.7449    0.0642    2.0406 H   0  0  0  0  0  0  0  0  0  0  0  0
    7.0039    0.1230    1.6117 H   0  0  0  0  0  0  0  0  0  0  0  0
  1  2  1  0
  1 17  1  0
  1 18  1  0
  1 19  1  0
  2  3  1  0
  2 20  1  0
  2 21  1  0
  3  4  1  0
  3  5  1  1
  3  6  1  0
  4 22  1  0
  4 23  1  0
  4 24  1  0
  5 25  1  0
  5 26  1  0
  6  7  2  0
  6 16  1  0
  7  8  1  0
  8  9  1  0
  8 15  2  0
  9 10  1  0
  9 11  1  0
  9 13  1  1
 10 27  1  0
 10 28  1  0
 10 29  1  0
 11 12  1  0
 11 30  1  0
 11 31  1  0
 12 32  1  0
 12 33  1  0
 12 34  1  0
 13 14  1  0
 14 35  1  0
 14 36  1  0
 14 37  1  0
 15 16  1  0
M  END

