
     RDKit          3D

 36 38  0  0  0  0  0  0  0  0999 V2000
    1.0518   -0.0578    0.3252 C   0  0  0  0  0  0  0  0  0  0  0  0
    2.5244    0.0439    0.0114 C   0  0  0  0  0  0  0  0  0  0  0  0
    3.1796    1.2839   -0.0435 C   0  0  0  0  0  0  0  0  0  0  0  0
    4.5397    1.3728   -0.3406 C   0  0  0  0  0  0  0  0  0  0  0  0
    5.2994    0.2186   -0.5958 C   0  0  0  0  0  0  0  0  0  0  0  0
    6.7400    0.2735   -0.9178 C   0  0  0  0  0  0  0  0  0  0  0  0
    7.5028    1.4068   -1.0865 C   0  0  0  0  0  0  0  0  0  0  0  0
    9.1427    0.9892   -1.4727 S   0  0  0  0  0  0  0  0  0  0  0  0
    8.6735   -0.7179   -1.3601 C   0  0  0  0  0  0  0  0  0  0  0  0
    9.6400   -1.6863   -1.5722 N   0  0  0  0  0  0  0  0  0  0  0  0
    9.4326   -3.0541   -1.7991 C   0  0  0  0  0  0  0  0  0  0  0  0
    8.3308   -3.5478   -1.9378 O   0  0  0  0  0  0  0  0  0  0  0  0
   10.6907   -3.8232   -1.8585 C   0  0  0  0  0  0  0  0  0  0  0  0
   11.9909   -3.4789   -1.4763 C   0  0  0  0  0  0  0  0  0  0  0  0
   12.8195   -4.5961   -1.7163 C   0  0  0  0  0  0  0  0  0  0  0  0
   12.0039   -5.5916   -2.2358 C   0  0  0  0  0  0  0  0  0  0  0  0
   10.7228   -5.1294   -2.3181 N   0  0  0  0  0  0  0  0  0  0  0  0
    9.5998   -5.9143   -2.8161 C   0  0  0  0  0  0  0  0  0  0  0  0
    7.4305   -0.9121   -1.0738 N   0  0  0  0  0  0  0  0  0  0  0  0
    4.6473   -1.0276   -0.5395 C   0  0  0  0  0  0  0  0  0  0  0  0
    3.2884   -1.1075   -0.2421 C   0  0  0  0  0  0  0  0  0  0  0  0
    0.6199    0.9241    0.5694 H   0  0  0  0  0  0  0  0  0  0  0  0
    0.8684   -0.7297    1.1803 H   0  0  0  0  0  0  0  0  0  0  0  0
    0.4876   -0.4682   -0.5299 H   0  0  0  0  0  0  0  0  0  0  0  0
    2.6142    2.1996    0.1525 H   0  0  0  0  0  0  0  0  0  0  0  0
    5.0101    2.3586   -0.3670 H   0  0  0  0  0  0  0  0  0  0  0  0
    7.2057    2.4498   -1.0127 H   0  0  0  0  0  0  0  0  0  0  0  0
   10.5938   -1.3561   -1.6505 H   0  0  0  0  0  0  0  0  0  0  0  0
   12.3031   -2.5331   -1.0354 H   0  0  0  0  0  0  0  0  0  0  0  0
   13.8877   -4.6768   -1.5267 H   0  0  0  0  0  0  0  0  0  0  0  0
   12.2475   -6.6030   -2.5558 H   0  0  0  0  0  0  0  0  0  0  0  0
    9.9879   -6.8795   -3.1686 H   0  0  0  0  0  0  0  0  0  0  0  0
    9.0978   -5.3973   -3.6448 H   0  0  0  0  0  0  0  0  0  0  0  0
    8.8540   -6.0766   -2.0272 H   0  0  0  0  0  0  0  0  0  0  0  0
    5.2312   -1.9283   -0.7362 H   0  0  0  0  0  0  0  0  0  0  0  0
    2.8076   -2.0900   -0.2057 H   0  0  0  0  0  0  0  0  0  0  0  0
  1  2  1  0
  1 22  1  0
  1 23  1  0
  1 24  1  0
  2  3  2  0
  2 21  1  0
  3  4  1  0
  3 25  1  0
  4  5  2  0
  4 26  1  0
  5  6  1  0
  5 20  1  0
  6  7  2  0
  6 19  1  0
  7  8  1  0
  7 27  1  0
  8  9  1  0
  9 10  1  0
  9 19  2  0
 10 11  1  0
 10 28  1  0
 11 12  2  0
 11 13  1  0
 13 14  2  0
 13 17  1  0
 14 15  1  0
 14 29  1  0
 15 16  2  0
 15 30  1  0
 16 17  1  0
 16 31  1  0
 17 18  1  0
 18 32  1  0
 18 33  1  0
 18 34  1  0
 20 21  2  0
 20 35  1  0
 21 36  1  0
M  END

