
     RDKit          3D

 45 46  0  0  0  0  0  0  0  0999 V2000
    2.8411    0.3525   -1.9677 C   0  0  0  0  0  0  0  0  0  0  0  0
    2.5152    0.4633   -0.4887 C   0  0  0  0  0  0  0  0  0  0  0  0
    2.9650    1.7216    0.0613 O   0  0  0  0  0  0  0  0  0  0  0  0
    4.2299    1.7951    0.5009 C   0  0  0  0  0  0  0  0  0  0  0  0
    5.0213    0.8891    0.4740 O   0  0  0  0  0  0  0  0  0  0  0  0
    4.5143    3.2081    1.0263 C   0  0  1  0  0  0  0  0  0  0  0  0
    3.5533    3.6175    2.1440 C   0  0  0  0  0  0  0  0  0  0  0  0
    5.8577    3.2049    1.4695 O   0  0  0  0  0  0  0  0  0  0  0  0
    6.6303    4.3154    1.4300 C   0  0  0  0  0  0  0  0  0  0  0  0
    6.1886    5.5830    1.0334 C   0  0  0  0  0  0  0  0  0  0  0  0
    7.0623    6.6733    1.0601 C   0  0  0  0  0  0  0  0  0  0  0  0
    6.4218    8.2350    0.5550 Cl  0  0  0  0  0  0  0  0  0  0  0  0
    8.3944    6.5545    1.4810 C   0  0  0  0  0  0  0  0  0  0  0  0
    9.2947    7.7893    1.5216 C   0  0  1  0  0  0  0  0  0  0  0  0
    8.9621    8.7091    2.6083 N   0  0  0  0  0  0  0  0  0  0  0  0
    9.3908    8.5517    3.8980 C   0  0  0  0  0  0  0  0  0  0  0  0
    8.9148    9.1109    4.8601 O   0  0  0  0  0  0  0  0  0  0  0  0
   10.4874    7.6714    4.0405 N   0  0  0  0  0  0  0  0  0  0  0  0
   11.2165    7.0544    3.0516 C   0  0  0  0  0  0  0  0  0  0  0  0
   12.1075    6.2684    3.2689 O   0  0  0  0  0  0  0  0  0  0  0  0
   10.8045    7.4747    1.6211 C   0  0  2  0  0  0  0  0  0  0  0  0
   11.6065    8.6340    1.2100 C   0  0  0  0  0  0  0  0  0  0  0  0
   12.2353    9.5479    0.8769 N   0  0  0  0  0  0  0  0  0  0  0  0
    8.8191    5.2704    1.8601 C   0  0  0  0  0  0  0  0  0  0  0  0
    7.9782    4.1551    1.8435 C   0  0  0  0  0  0  0  0  0  0  0  0
    8.4766    2.9779    2.2908 O   0  0  0  0  0  0  0  0  0  0  0  0
    8.4390    1.8316    1.4376 C   0  0  0  0  0  0  0  0  0  0  0  0
    2.4189   -0.5811   -2.3724 H   0  0  0  0  0  0  0  0  0  0  0  0
    3.9290    0.3315   -2.1296 H   0  0  0  0  0  0  0  0  0  0  0  0
    2.4126    1.1956   -2.5314 H   0  0  0  0  0  0  0  0  0  0  0  0
    2.9761   -0.3556    0.0823 H   0  0  0  0  0  0  0  0  0  0  0  0
    1.4299    0.4585   -0.3141 H   0  0  0  0  0  0  0  0  0  0  0  0
    4.3927    3.8810    0.1579 H   0  0  0  0  0  0  0  0  0  0  0  0
    3.6543    2.9302    2.9973 H   0  0  0  0  0  0  0  0  0  0  0  0
    2.5161    3.5896    1.7832 H   0  0  0  0  0  0  0  0  0  0  0  0
    3.7797    4.6351    2.4942 H   0  0  0  0  0  0  0  0  0  0  0  0
    5.1605    5.7506    0.7177 H   0  0  0  0  0  0  0  0  0  0  0  0
    9.1311    8.3440    0.5872 H   0  0  0  0  0  0  0  0  0  0  0  0
    8.1192    9.2660    2.5129 H   0  0  0  0  0  0  0  0  0  0  0  0
   10.7661    7.4880    5.0018 H   0  0  0  0  0  0  0  0  0  0  0  0
   11.0716    6.6354    0.9635 H   0  0  0  0  0  0  0  0  0  0  0  0
    9.8407    5.0792    2.1920 H   0  0  0  0  0  0  0  0  0  0  0  0
    9.0076    1.0503    1.9597 H   0  0  0  0  0  0  0  0  0  0  0  0
    8.9366    2.0489    0.4753 H   0  0  0  0  0  0  0  0  0  0  0  0
    7.4134    1.4841    1.2512 H   0  0  0  0  0  0  0  0  0  0  0  0
  1  2  1  0
  1 28  1  0
  1 29  1  0
  1 30  1  0
  2  3  1  0
  2 31  1  0
  2 32  1  0
  3  4  1  0
  4  5  2  0
  4  6  1  0
  6  7  1  0
  6  8  1  0
  6 33  1  6
  7 34  1  0
  7 35  1  0
  7 36  1  0
  8  9  1  0
  9 10  2  0
  9 25  1  0
 10 11  1  0
 10 37  1  0
 11 12  1  0
 11 13  2  0
 13 14  1  0
 13 24  1  0
 14 15  1  0
 14 21  1  0
 14 38  1  6
 15 16  1  0
 15 39  1  0
 16 17  2  0
 16 18  1  0
 18 19  1  0
 18 40  1  0
 19 20  2  0
 19 21  1  0
 21 22  1  0
 21 41  1  6
 22 23  3  0
 24 25  2  0
 24 42  1  0
 25 26  1  0
 26 27  1  0
 27 43  1  0
 27 44  1  0
 27 45  1  0
M  END

