
     RDKit          3D

 52 57  0  0  0  0  0  0  0  0999 V2000
    0.9688   -0.0804    0.0572 C   0  0  0  0  0  0  0  0  0  0  0  0
   -0.2523   -0.0642    0.1095 C   0  0  0  0  0  0  0  0  0  0  0  0
   -1.6729   -0.0489    0.1698 C   0  0  0  0  0  0  0  0  0  0  0  0
   -2.3653    1.1709    0.3719 C   0  0  0  0  0  0  0  0  0  0  0  0
   -1.6680    2.4140    0.5199 C   0  0  0  0  0  0  0  0  0  0  0  0
   -2.3399    3.5926    0.7148 C   0  0  0  0  0  0  0  0  0  0  0  0
   -3.7654    3.6070    0.7750 C   0  0  0  0  0  0  0  0  0  0  0  0
   -4.4741    2.4428    0.6387 C   0  0  0  0  0  0  0  0  0  0  0  0
   -3.8145    1.1808    0.4327 C   0  0  0  0  0  0  0  0  0  0  0  0
   -4.5411   -0.0178    0.2920 C   0  0  0  0  0  0  0  0  0  0  0  0
   -6.0376   -0.0033    0.3554 C   0  0  0  0  0  0  0  0  0  0  0  0
   -6.8035    0.1651   -0.8108 C   0  0  0  0  0  0  0  0  0  0  0  0
   -8.2002    0.1780   -0.7520 C   0  0  0  0  0  0  0  0  0  0  0  0
   -8.8537    0.0216    0.4740 C   0  0  0  0  0  0  0  0  0  0  0  0
   -8.1023   -0.1478    1.6407 C   0  0  0  0  0  0  0  0  0  0  0  0
   -6.7056   -0.1605    1.5818 C   0  0  0  0  0  0  0  0  0  0  0  0
   -3.8565   -1.2513    0.0881 C   0  0  0  0  0  0  0  0  0  0  0  0
   -4.5558   -2.4732   -0.0566 C   0  0  0  0  0  0  0  0  0  0  0  0
   -3.9010   -3.6889   -0.2569 C   0  0  0  0  0  0  0  0  0  0  0  0
   -4.6109   -4.9282   -0.4036 C   0  0  0  0  0  0  0  0  0  0  0  0
   -3.9379   -6.1055   -0.5995 C   0  0  0  0  0  0  0  0  0  0  0  0
   -2.5076   -6.1228   -0.6619 C   0  0  0  0  0  0  0  0  0  0  0  0
   -1.7909   -4.9626   -0.5266 C   0  0  0  0  0  0  0  0  0  0  0  0
   -2.4536   -3.7068   -0.3199 C   0  0  0  0  0  0  0  0  0  0  0  0
   -1.7539   -2.5068   -0.1778 C   0  0  0  0  0  0  0  0  0  0  0  0
   -2.4055   -1.2737    0.0250 C   0  0  0  0  0  0  0  0  0  0  0  0
    2.3943   -0.0947   -0.0032 C   0  0  0  0  0  0  0  0  0  0  0  0
    3.1351    1.0994    0.1461 C   0  0  0  0  0  0  0  0  0  0  0  0
    4.5277    1.0810    0.0864 C   0  0  0  0  0  0  0  0  0  0  0  0
    5.2109   -0.1222   -0.1226 C   0  0  0  0  0  0  0  0  0  0  0  0
    4.4892   -1.3117   -0.2720 C   0  0  0  0  0  0  0  0  0  0  0  0
    3.0965   -1.3029   -0.2137 C   0  0  0  0  0  0  0  0  0  0  0  0
   -0.5783    2.4018    0.4732 H   0  0  0  0  0  0  0  0  0  0  0  0
   -1.7843    4.5274    0.8245 H   0  0  0  0  0  0  0  0  0  0  0  0
   -4.2912    4.5524    0.9306 H   0  0  0  0  0  0  0  0  0  0  0  0
   -5.5635    2.4588    0.6851 H   0  0  0  0  0  0  0  0  0  0  0  0
   -6.2958    0.2878   -1.7710 H   0  0  0  0  0  0  0  0  0  0  0  0
   -8.7800    0.3113   -1.6692 H   0  0  0  0  0  0  0  0  0  0  0  0
   -9.9457    0.0319    0.5200 H   0  0  0  0  0  0  0  0  0  0  0  0
   -8.6051   -0.2707    2.6036 H   0  0  0  0  0  0  0  0  0  0  0  0
   -6.1213   -0.2931    2.4959 H   0  0  0  0  0  0  0  0  0  0  0  0
   -5.6458   -2.4659   -0.0100 H   0  0  0  0  0  0  0  0  0  0  0  0
   -5.7031   -4.9125   -0.3555 H   0  0  0  0  0  0  0  0  0  0  0  0
   -4.4902   -7.0422   -0.7097 H   0  0  0  0  0  0  0  0  0  0  0  0
   -1.9901   -7.0726   -0.8190 H   0  0  0  0  0  0  0  0  0  0  0  0
   -0.6986   -4.9747   -0.5740 H   0  0  0  0  0  0  0  0  0  0  0  0
   -0.6636   -2.5198   -0.2248 H   0  0  0  0  0  0  0  0  0  0  0  0
    2.6032    2.0390    0.3093 H   0  0  0  0  0  0  0  0  0  0  0  0
    5.0856    2.0135    0.2039 H   0  0  0  0  0  0  0  0  0  0  0  0
    6.3027   -0.1328   -0.1689 H   0  0  0  0  0  0  0  0  0  0  0  0
    5.0170   -2.2548   -0.4355 H   0  0  0  0  0  0  0  0  0  0  0  0
    2.5346   -2.2318   -0.3306 H   0  0  0  0  0  0  0  0  0  0  0  0
  1  2  3  0
  1 27  1  0
  2  3  1  0
  3  4  1  0
  3 26  2  0
  4  5  2  0
  4  9  1  0
  5  6  1  0
  5 33  1  0
  6  7  2  0
  6 34  1  0
  7  8  1  0
  7 35  1  0
  8  9  2  0
  8 36  1  0
  9 10  1  0
 10 11  1  0
 10 17  2  0
 11 12  2  0
 11 16  1  0
 12 13  1  0
 12 37  1  0
 13 14  2  0
 13 38  1  0
 14 15  1  0
 14 39  1  0
 15 16  2  0
 15 40  1  0
 16 41  1  0
 17 18  1  0
 17 26  1  0
 18 19  2  0
 18 42  1  0
 19 20  1  0
 19 24  1  0
 20 21  2  0
 20 43  1  0
 21 22  1  0
 21 44  1  0
 22 23  2  0
 22 45  1  0
 23 24  1  0
 23 46  1  0
 24 25  2  0
 25 26  1  0
 25 47  1  0
 27 28  2  0
 27 32  1  0
 28 29  1  0
 28 48  1  0
 29 30  2  0
 29 49  1  0
 30 31  1  0
 30 50  1  0
 31 32  2  0
 31 51  1  0
 32 52  1  0
M  END

