
     RDKit          3D

 64 68  0  0  0  0  0  0  0  0999 V2000
    0.1752    3.6221   -1.1659 O   0  0  0  0  0  0  0  0  0  0  0  0
    0.4834    3.1486   -2.2382 C   0  0  0  0  0  0  0  0  0  0  0  0
    1.7713    3.3886   -2.8868 C   0  0  0  0  0  0  0  0  0  0  0  0
    2.8709    4.1328   -2.5089 C   0  0  0  0  0  0  0  0  0  0  0  0
    3.8239    3.9891   -3.5440 C   0  0  0  0  0  0  0  0  0  0  0  0
    3.2456    3.1606   -4.4975 C   0  0  0  0  0  0  0  0  0  0  0  0
    3.7197    2.6735   -5.7298 C   0  0  0  0  0  0  0  0  0  0  0  0
    4.1512    2.2625   -6.7958 C   0  0  0  0  0  0  0  0  0  0  0  0
    4.6316    1.7681   -8.0458 C   0  0  0  0  0  0  0  0  0  0  0  0
    3.7129    0.9258   -8.7363 C   0  0  0  0  0  0  0  0  0  0  0  0
    2.8596    0.2175   -9.2497 C   0  0  0  0  0  0  0  0  0  0  0  0
    1.8905   -0.6018   -9.8580 C   0  0  0  0  0  0  0  0  0  0  0  0
    1.8851   -1.3043  -11.0565 C   0  0  0  0  0  0  0  0  0  0  0  0
    0.6300   -1.9515  -11.1356 C   0  0  0  0  0  0  0  0  0  0  0  0
   -0.0555   -1.6090   -9.9874 C   0  0  0  0  0  0  0  0  0  0  0  0
   -1.3895   -1.9650   -9.5033 C   0  0  0  0  0  0  0  0  0  0  0  0
   -2.1499   -2.6850  -10.1127 O   0  0  0  0  0  0  0  0  0  0  0  0
    0.7076   -0.7919   -9.2139 O   0  0  0  0  0  0  0  0  0  0  0  0
    5.8956    2.1295   -8.4693 C   0  0  0  0  0  0  0  0  0  0  0  0
    6.6395    1.7937   -9.6640 C   0  0  0  0  0  0  0  0  0  0  0  0
    7.9424    2.3384   -9.7998 C   0  0  0  0  0  0  0  0  0  0  0  0
    8.7398    2.0813  -10.9031 C   0  0  0  0  0  0  0  0  0  0  0  0
    8.2758    1.2511  -11.9539 C   0  0  0  0  0  0  0  0  0  0  0  0
    9.0170    0.9133  -13.1500 C   0  0  0  0  0  0  0  0  0  0  0  0
   10.2814    1.2731  -13.5745 C   0  0  0  0  0  0  0  0  0  0  0  0
   11.1915    2.1147  -12.8738 C   0  0  0  0  0  0  0  0  0  0  0  0
   12.0176    2.8282  -12.3251 C   0  0  0  0  0  0  0  0  0  0  0  0
   12.9514    3.6532  -11.6732 C   0  0  0  0  0  0  0  0  0  0  0  0
   14.2309    4.0670  -12.0181 C   0  0  0  0  0  0  0  0  0  0  0  0
   14.6813    4.8939  -10.9625 C   0  0  0  0  0  0  0  0  0  0  0  0
   13.6574    4.9383  -10.0377 C   0  0  0  0  0  0  0  0  0  0  0  0
   13.5296    5.6215   -8.7515 C   0  0  0  0  0  0  0  0  0  0  0  0
   14.3991    6.3158   -8.2721 O   0  0  0  0  0  0  0  0  0  0  0  0
   12.6077    4.1860  -10.4679 O   0  0  0  0  0  0  0  0  0  0  0  0
   10.7644    0.7809  -14.8242 C   0  0  0  0  0  0  0  0  0  0  0  0
   11.1999    0.3727  -15.8898 C   0  0  0  0  0  0  0  0  0  0  0  0
   11.6791   -0.1108  -17.1216 C   0  0  0  0  0  0  0  0  0  0  0  0
   11.1060   -0.9376  -18.0795 C   0  0  0  0  0  0  0  0  0  0  0  0
   12.0634   -1.0774  -19.1112 C   0  0  0  0  0  0  0  0  0  0  0  0
   13.1604   -0.3326  -18.7274 C   0  0  0  0  0  0  0  0  0  0  0  0
   14.4502   -0.0890  -19.3700 C   0  0  0  0  0  0  0  0  0  0  0  0
   14.7643   -0.5589  -20.4422 O   0  0  0  0  0  0  0  0  0  0  0  0
   12.9271    0.2533  -17.5211 O   0  0  0  0  0  0  0  0  0  0  0  0
    6.9725    0.7062  -11.8179 C   0  0  0  0  0  0  0  0  0  0  0  0
    6.1759    0.9639  -10.7145 C   0  0  0  0  0  0  0  0  0  0  0  0
    1.9988    2.7994   -4.0921 O   0  0  0  0  0  0  0  0  0  0  0  0
   -0.2027    2.4835   -2.8206 H   0  0  0  0  0  0  0  0  0  0  0  0
    2.9545    4.7058   -1.5882 H   0  0  0  0  0  0  0  0  0  0  0  0
    4.8169    4.4277   -3.6062 H   0  0  0  0  0  0  0  0  0  0  0  0
    2.6992   -1.3352  -11.7767 H   0  0  0  0  0  0  0  0  0  0  0  0
    0.2498   -2.5949  -11.9256 H   0  0  0  0  0  0  0  0  0  0  0  0
   -1.6518   -1.5129   -8.5141 H   0  0  0  0  0  0  0  0  0  0  0  0
    6.4279    2.7869   -7.7766 H   0  0  0  0  0  0  0  0  0  0  0  0
    8.3289    2.9829   -9.0059 H   0  0  0  0  0  0  0  0  0  0  0  0
    9.7313    2.5268  -10.9528 H   0  0  0  0  0  0  0  0  0  0  0  0
    8.4827    0.2567  -13.8421 H   0  0  0  0  0  0  0  0  0  0  0  0
   14.7592    3.7934  -12.9283 H   0  0  0  0  0  0  0  0  0  0  0  0
   15.6356    5.4067  -10.8668 H   0  0  0  0  0  0  0  0  0  0  0  0
   12.5495    5.4481   -8.2394 H   0  0  0  0  0  0  0  0  0  0  0  0
   10.1134   -1.3778  -18.0225 H   0  0  0  0  0  0  0  0  0  0  0  0
   11.9842   -1.6482  -20.0336 H   0  0  0  0  0  0  0  0  0  0  0  0
   15.1328    0.5758  -18.7828 H   0  0  0  0  0  0  0  0  0  0  0  0
    6.5871    0.0620  -12.6127 H   0  0  0  0  0  0  0  0  0  0  0  0
    5.1833    0.5211  -10.6593 H   0  0  0  0  0  0  0  0  0  0  0  0
  1  2  2  0
  2  3  1  0
  2 47  1  0
  3  4  2  0
  3 46  1  0
  4  5  1  0
  4 48  1  0
  5  6  2  0
  5 49  1  0
  6  7  1  0
  6 46  1  0
  7  8  3  0
  8  9  1  0
  9 10  1  0
  9 19  2  0
 10 11  3  0
 11 12  1  0
 12 13  2  0
 12 18  1  0
 13 14  1  0
 13 50  1  0
 14 15  2  0
 14 51  1  0
 15 16  1  0
 15 18  1  0
 16 17  2  0
 16 52  1  0
 19 20  1  0
 19 53  1  0
 20 21  2  0
 20 45  1  0
 21 22  1  0
 21 54  1  0
 22 23  2  0
 22 55  1  0
 23 24  1  0
 23 44  1  0
 24 25  2  0
 24 56  1  0
 25 26  1  0
 25 35  1  0
 26 27  3  0
 27 28  1  0
 28 29  2  0
 28 34  1  0
 29 30  1  0
 29 57  1  0
 30 31  2  0
 30 58  1  0
 31 32  1  0
 31 34  1  0
 32 33  2  0
 32 59  1  0
 35 36  3  0
 36 37  1  0
 37 38  2  0
 37 43  1  0
 38 39  1  0
 38 60  1  0
 39 40  2  0
 39 61  1  0
 40 41  1  0
 40 43  1  0
 41 42  2  0
 41 62  1  0
 44 45  2  0
 44 63  1  0
 45 64  1  0
M  END

