
     RDKit          3D

 35 36  0  0  0  0  0  0  0  0999 V2000
    3.4887    1.7729   -1.6141 C   0  0  0  0  0  0  0  0  0  0  0  0
    3.3560    0.6847   -0.7236 O   0  0  0  0  0  0  0  0  0  0  0  0
    3.7201    0.8186    0.5630 C   0  0  0  0  0  0  0  0  0  0  0  0
    4.2805    1.9726    1.1252 C   0  0  0  0  0  0  0  0  0  0  0  0
    4.6122    2.0107    2.4840 C   0  0  0  0  0  0  0  0  0  0  0  0
    4.4024    0.9162    3.3299 C   0  0  0  0  0  0  0  0  0  0  0  0
    4.7788    0.9487    4.7910 C   0  0  0  0  0  0  0  0  0  0  0  0
    3.8403   -0.2411    2.7635 C   0  0  0  0  0  0  0  0  0  0  0  0
    3.5135   -0.2948    1.4111 C   0  0  0  0  0  0  0  0  0  0  0  0
    2.7572   -1.7608    0.6896 S   0  0  1  0  0  0  0  0  0  0  0  0
    1.3563   -1.4761    0.4023 O   0  0  0  0  0  0  0  0  0  0  0  0
    3.6747   -2.2460   -0.3634 O   0  0  0  0  0  0  0  0  0  0  0  0
    2.7799   -2.9834    1.8295 N   0  0  0  0  0  0  0  0  0  0  0  0
    1.7104   -3.1734    2.7907 C   0  0  0  0  0  0  0  0  0  0  0  0
    2.5530   -3.3018    4.4253 S   0  0  0  0  0  0  0  0  0  0  0  0
    4.0165   -4.0907    3.6304 C   0  0  0  0  0  0  0  0  0  0  0  0
    3.9885   -3.7759    2.1128 C   0  0  1  0  0  0  0  0  0  0  0  0
    4.8707   -3.1868    1.8143 H   0  0  0  0  0  0  0  0  0  0  0  0
    4.0202   -5.0853    1.2640 C   0  0  0  0  0  0  0  0  0  0  0  0
    4.1295   -6.1757    1.7638 O   0  0  0  0  0  0  0  0  0  0  0  0
    3.9459   -4.9076   -0.0477 O   0  0  0  0  0  0  0  0  0  0  0  0
    3.1040    1.4264   -2.5815 H   0  0  0  0  0  0  0  0  0  0  0  0
    4.5445    2.0741   -1.7324 H   0  0  0  0  0  0  0  0  0  0  0  0
    2.8988    2.6445   -1.2804 H   0  0  0  0  0  0  0  0  0  0  0  0
    4.4565    2.8537    0.5077 H   0  0  0  0  0  0  0  0  0  0  0  0
    5.0426    2.9304    2.8901 H   0  0  0  0  0  0  0  0  0  0  0  0
    4.8365    1.9803    5.1687 H   0  0  0  0  0  0  0  0  0  0  0  0
    5.7654    0.4821    4.9605 H   0  0  0  0  0  0  0  0  0  0  0  0
    4.0521    0.3969    5.4066 H   0  0  0  0  0  0  0  0  0  0  0  0
    3.6329   -1.1028    3.4041 H   0  0  0  0  0  0  0  0  0  0  0  0
    1.1535   -4.1019    2.5837 H   0  0  0  0  0  0  0  0  0  0  0  0
    1.0095   -2.3293    2.7737 H   0  0  0  0  0  0  0  0  0  0  0  0
    3.9920   -5.1801    3.7641 H   0  0  0  0  0  0  0  0  0  0  0  0
    4.9206   -3.6929    4.1105 H   0  0  0  0  0  0  0  0  0  0  0  0
    3.8453   -3.9547   -0.2942 H   0  0  0  0  0  0  0  0  0  0  0  0
  1  2  1  0
  1 22  1  0
  1 23  1  0
  1 24  1  0
  2  3  1  0
  3  4  2  0
  3  9  1  0
  4  5  1  0
  4 25  1  0
  5  6  2  0
  5 26  1  0
  6  7  1  0
  6  8  1  0
  7 27  1  0
  7 28  1  0
  7 29  1  0
  8  9  2  0
  8 30  1  0
 10  9  1  1
 10 11  2  0
 10 12  2  0
 10 13  1  0
 13 14  1  0
 13 17  1  0
 14 15  1  0
 14 31  1  0
 14 32  1  0
 15 16  1  0
 16 17  1  0
 16 33  1  0
 16 34  1  0
 17 18  1  6
 17 19  1  0
 19 20  2  0
 19 21  1  0
 21 35  1  0
M  END

