
     RDKit          3D

 33 34  0  0  0  0  0  0  0  0999 V2000
    1.0422   -0.2390    0.5119 C   0  0  0  0  0  0  0  0  0  0  0  0
    2.4610   -0.1395    0.2247 N   0  0  0  0  0  0  0  0  0  0  0  0
    2.9701    1.1504   -0.1835 C   0  0  0  0  0  0  0  0  0  0  0  0
    3.2313   -1.2746    0.0619 C   0  0  0  0  0  0  0  0  0  0  0  0
    4.5641   -1.2169   -0.4247 C   0  0  0  0  0  0  0  0  0  0  0  0
    5.3085   -2.3842   -0.5350 C   0  0  0  0  0  0  0  0  0  0  0  0
    4.7236   -3.6105   -0.1714 C   0  0  0  0  0  0  0  0  0  0  0  0
    5.3736   -4.8585   -0.2405 N   0  0  0  0  0  0  0  0  0  0  0  0
    6.6455   -5.1361   -0.6549 C   0  0  0  0  0  0  0  0  0  0  0  0
    7.4620   -4.3134   -1.0359 O   0  0  0  0  0  0  0  0  0  0  0  0
    6.9677   -6.6367   -0.6446 C   0  0  1  0  0  0  0  0  0  0  0  0
    8.4742   -6.9377   -0.5050 C   0  0  0  0  0  0  0  0  0  0  0  0
    8.5664   -8.6945    0.0430 S   0  0  0  0  0  0  0  0  0  0  0  0
    6.7057   -8.7339    0.3627 C   0  0  0  0  0  0  0  0  0  0  0  0
    6.2396   -7.3698    0.3940 N   0  0  0  0  0  0  0  0  0  0  0  0
    3.3965   -3.5670    0.2797 C   0  0  0  0  0  0  0  0  0  0  0  0
    2.6812   -2.4559    0.3899 N   0  0  0  0  0  0  0  0  0  0  0  0
    0.7505    0.5174    1.2597 H   0  0  0  0  0  0  0  0  0  0  0  0
    0.8277   -1.2377    0.9068 H   0  0  0  0  0  0  0  0  0  0  0  0
    0.4214   -0.0829   -0.3930 H   0  0  0  0  0  0  0  0  0  0  0  0
    2.2703    1.9319    0.1437 H   0  0  0  0  0  0  0  0  0  0  0  0
    3.0911    1.2435   -1.2819 H   0  0  0  0  0  0  0  0  0  0  0  0
    3.9465    1.3673    0.2812 H   0  0  0  0  0  0  0  0  0  0  0  0
    5.0197   -0.2732   -0.7206 H   0  0  0  0  0  0  0  0  0  0  0  0
    6.3325   -2.3642   -0.9034 H   0  0  0  0  0  0  0  0  0  0  0  0
    4.8351   -5.6727    0.0474 H   0  0  0  0  0  0  0  0  0  0  0  0
    6.6302   -7.0380   -1.6190 H   0  0  0  0  0  0  0  0  0  0  0  0
    8.9413   -6.2761    0.2399 H   0  0  0  0  0  0  0  0  0  0  0  0
    9.0041   -6.8058   -1.4576 H   0  0  0  0  0  0  0  0  0  0  0  0
    6.5036   -9.2524    1.3097 H   0  0  0  0  0  0  0  0  0  0  0  0
    6.2272   -9.2867   -0.4597 H   0  0  0  0  0  0  0  0  0  0  0  0
    6.4757   -6.9619    1.3019 H   0  0  0  0  0  0  0  0  0  0  0  0
    2.8910   -4.5014    0.5635 H   0  0  0  0  0  0  0  0  0  0  0  0
  1  2  1  0
  1 18  1  0
  1 19  1  0
  1 20  1  0
  2  3  1  0
  2  4  1  0
  3 21  1  0
  3 22  1  0
  3 23  1  0
  4  5  2  0
  4 17  1  0
  5  6  1  0
  5 24  1  0
  6  7  2  0
  6 25  1  0
  7  8  1  0
  7 16  1  0
  8  9  1  0
  8 26  1  0
  9 10  2  0
  9 11  1  0
 11 12  1  0
 11 15  1  0
 11 27  1  6
 12 13  1  0
 12 28  1  0
 12 29  1  0
 13 14  1  0
 14 15  1  0
 14 30  1  0
 14 31  1  0
 15 32  1  0
 16 17  2  0
 16 33  1  0
M  END

