
     RDKit          3D

128138  0  0  0  0  0  0  0  0999 V2000
   10.7045   -3.1347   -1.6512 C   0  0  0  0  0  0  0  0  0  0  0  0
   10.0751   -1.7579   -1.8705 C   0  0  0  0  0  0  0  0  0  0  0  0
    8.9018   -1.4833   -0.9248 C   0  0  0  0  0  0  0  0  0  0  0  0
    8.2656   -0.0939   -1.0496 C   0  0  0  0  0  0  0  0  0  0  0  0
    7.6701    0.1819   -2.3701 N   0  0  0  0  0  0  0  0  0  0  0  0
    6.3963   -0.3508   -2.6149 C   0  0  0  0  0  0  0  0  0  0  0  0
    5.8263   -1.0155   -1.7672 O   0  0  0  0  0  0  0  0  0  0  0  0
    5.7874   -0.0658   -3.9431 C   0  0  0  0  0  0  0  0  0  0  0  0
    4.5336   -0.5768   -4.2431 C   0  0  0  0  0  0  0  0  0  0  0  0
    3.9383   -0.3158   -5.4953 C   0  0  0  0  0  0  0  0  0  0  0  0
    4.5968    0.4517   -6.4397 C   0  0  0  0  0  0  0  0  0  0  0  0
    5.8809    0.9884   -6.1619 C   0  0  0  0  0  0  0  0  0  0  0  0
    6.6080    1.7900   -7.0994 C   0  0  0  0  0  0  0  0  0  0  0  0
    6.0004    1.9695   -8.3067 O   0  0  0  0  0  0  0  0  0  0  0  0
    6.3769    2.9594   -9.1901 C   0  0  0  0  0  0  0  0  0  0  0  0
    6.3547    4.3095   -8.8191 C   0  0  0  0  0  0  0  0  0  0  0  0
    6.6557    5.2891   -9.7688 C   0  0  0  0  0  0  0  0  0  0  0  0
    6.6140    6.7606   -9.4208 C   0  0  0  0  0  0  0  0  0  0  0  0
    6.4778    6.9217   -8.0306 O   0  0  0  0  0  0  0  0  0  0  0  0
    6.4105    8.1778   -7.5018 C   0  0  0  0  0  0  0  0  0  0  0  0
    6.4603    9.3567   -8.2580 C   0  0  0  0  0  0  0  0  0  0  0  0
    6.3866   10.5952   -7.6125 C   0  0  0  0  0  0  0  0  0  0  0  0
    6.2567   10.6709   -6.2271 C   0  0  0  0  0  0  0  0  0  0  0  0
    6.1762   11.9510   -5.5708 N   0  0  0  0  0  0  0  0  0  0  0  0
    5.0239   12.7291   -5.7967 C   0  0  0  0  0  0  0  0  0  0  0  0
    4.1336   12.3366   -6.5267 O   0  0  0  0  0  0  0  0  0  0  0  0
    4.9608   14.0434   -5.0989 C   0  0  0  0  0  0  0  0  0  0  0  0
    3.8451   14.8460   -5.2913 C   0  0  0  0  0  0  0  0  0  0  0  0
    3.7590   16.0988   -4.6576 C   0  0  0  0  0  0  0  0  0  0  0  0
    4.7838   16.5334   -3.8318 C   0  0  0  0  0  0  0  0  0  0  0  0
    5.9326   15.7372   -3.5977 C   0  0  0  0  0  0  0  0  0  0  0  0
    7.0183   16.1545   -2.7296 C   0  0  0  0  0  0  0  0  0  0  0  0
    6.9469   17.3535   -2.0845 N   0  0  0  0  0  0  0  0  0  0  0  0
    7.9059   17.8313   -1.1156 C   0  0  0  0  0  0  0  0  0  0  0  0
    7.5232   19.2551   -0.6971 C   0  0  0  0  0  0  0  0  0  0  0  0
    6.1153   19.3709   -0.3335 N   0  0  0  0  0  0  0  0  0  0  0  0
    5.7881   18.7242    0.9282 C   0  0  0  0  0  0  0  0  0  0  0  0
    5.6336   20.7420   -0.3807 C   0  0  0  0  0  0  0  0  0  0  0  0
    8.1303   15.3078   -2.5913 C   0  0  0  0  0  0  0  0  0  0  0  0
    8.1940   14.0786   -3.2572 C   0  0  0  0  0  0  0  0  0  0  0  0
    7.1622   13.6403   -4.0793 C   0  0  0  0  0  0  0  0  0  0  0  0
    6.0226   14.4695   -4.2563 C   0  0  0  0  0  0  0  0  0  0  0  0
    7.2693   12.3300   -4.7451 C   0  0  0  0  0  0  0  0  0  0  0  0
    8.2253   11.5884   -4.6165 O   0  0  0  0  0  0  0  0  0  0  0  0
    6.2049    9.4894   -5.4765 C   0  0  0  0  0  0  0  0  0  0  0  0
    6.2845    8.2526   -6.1054 C   0  0  0  0  0  0  0  0  0  0  0  0
    6.9722    4.9110  -11.0834 C   0  0  0  0  0  0  0  0  0  0  0  0
    6.9778    3.5621  -11.4314 C   0  0  0  0  0  0  0  0  0  0  0  0
    7.2103    3.2202  -12.7503 O   0  0  0  0  0  0  0  0  0  0  0  0
    8.3764    2.6338  -13.1422 C   0  0  0  0  0  0  0  0  0  0  0  0
    9.4929    2.5136  -12.3273 C   0  0  0  0  0  0  0  0  0  0  0  0
   10.6661    1.9128  -12.8246 C   0  0  0  0  0  0  0  0  0  0  0  0
   10.7335    1.4350  -14.1241 C   0  0  0  0  0  0  0  0  0  0  0  0
    9.6001    1.5522  -14.9715 C   0  0  0  0  0  0  0  0  0  0  0  0
    9.6519    1.0683  -16.3046 C   0  0  0  0  0  0  0  0  0  0  0  0
    8.5447    1.1797  -17.1324 C   0  0  0  0  0  0  0  0  0  0  0  0
    7.3572    1.7754  -16.6581 C   0  0  0  0  0  0  0  0  0  0  0  0
    7.2815    2.2560  -15.3625 C   0  0  0  0  0  0  0  0  0  0  0  0
    8.3978    2.1560  -14.4922 C   0  0  0  0  0  0  0  0  0  0  0  0
   10.8945    0.4339  -16.8242 C   0  0  0  0  0  0  0  0  0  0  0  0
   10.9753   -0.0047  -17.9583 O   0  0  0  0  0  0  0  0  0  0  0  0
   11.9862    0.3580  -15.9475 N   0  0  0  0  0  0  0  0  0  0  0  0
   13.2112   -0.2813  -16.4624 C   0  0  0  0  0  0  0  0  0  0  0  0
   14.0739    0.6305  -17.3428 C   0  0  0  0  0  0  0  0  0  0  0  0
   14.6301    1.8793  -16.6519 C   0  0  0  0  0  0  0  0  0  0  0  0
   15.5333    2.7102  -17.5650 C   0  0  0  0  0  0  0  0  0  0  0  0
   11.9858    0.8086  -14.6137 C   0  0  0  0  0  0  0  0  0  0  0  0
   12.9722    0.6843  -13.9093 O   0  0  0  0  0  0  0  0  0  0  0  0
    6.6827    2.5679  -10.4932 C   0  0  0  0  0  0  0  0  0  0  0  0
    7.8617    2.2933   -6.7828 C   0  0  0  0  0  0  0  0  0  0  0  0
    8.4327    2.0214   -5.5243 C   0  0  0  0  0  0  0  0  0  0  0  0
    7.7654    1.2510   -4.5844 C   0  0  0  0  0  0  0  0  0  0  0  0
    6.4835    0.7253   -4.8938 C   0  0  0  0  0  0  0  0  0  0  0  0
    8.3984    0.9835   -3.2695 C   0  0  0  0  0  0  0  0  0  0  0  0
    9.4927    1.4274   -2.9697 O   0  0  0  0  0  0  0  0  0  0  0  0
   11.5379   -3.3138   -2.3492 H   0  0  0  0  0  0  0  0  0  0  0  0
    9.9670   -3.9418   -1.7983 H   0  0  0  0  0  0  0  0  0  0  0  0
   11.1014   -3.2366   -0.6269 H   0  0  0  0  0  0  0  0  0  0  0  0
    9.7308   -1.6795   -2.9167 H   0  0  0  0  0  0  0  0  0  0  0  0
   10.8385   -0.9703   -1.7499 H   0  0  0  0  0  0  0  0  0  0  0  0
    9.2454   -1.5828    0.1211 H   0  0  0  0  0  0  0  0  0  0  0  0
    8.1186   -2.2483   -1.0598 H   0  0  0  0  0  0  0  0  0  0  0  0
    9.0136    0.6896   -0.8789 H   0  0  0  0  0  0  0  0  0  0  0  0
    7.4609    0.0036   -0.3087 H   0  0  0  0  0  0  0  0  0  0  0  0
    4.0261   -1.1805   -3.4881 H   0  0  0  0  0  0  0  0  0  0  0  0
    2.9496   -0.7232   -5.7184 H   0  0  0  0  0  0  0  0  0  0  0  0
    4.1403    0.6560   -7.4090 H   0  0  0  0  0  0  0  0  0  0  0  0
    6.1012    4.6013   -7.8008 H   0  0  0  0  0  0  0  0  0  0  0  0
    5.7664    7.2376   -9.9522 H   0  0  0  0  0  0  0  0  0  0  0  0
    7.5372    7.2524   -9.7837 H   0  0  0  0  0  0  0  0  0  0  0  0
    6.5568    9.3320   -9.3433 H   0  0  0  0  0  0  0  0  0  0  0  0
    6.4244   11.5127   -8.2022 H   0  0  0  0  0  0  0  0  0  0  0  0
    3.0516   14.4819   -5.9466 H   0  0  0  0  0  0  0  0  0  0  0  0
    2.8853   16.7336   -4.8215 H   0  0  0  0  0  0  0  0  0  0  0  0
    4.6954   17.5199   -3.3711 H   0  0  0  0  0  0  0  0  0  0  0  0
    6.0466   17.8167   -1.9958 H   0  0  0  0  0  0  0  0  0  0  0  0
    8.9202   17.8567   -1.5494 H   0  0  0  0  0  0  0  0  0  0  0  0
    7.9633   17.1604   -0.2344 H   0  0  0  0  0  0  0  0  0  0  0  0
    7.7006   19.9253   -1.5535 H   0  0  0  0  0  0  0  0  0  0  0  0
    8.2034   19.5863    0.1190 H   0  0  0  0  0  0  0  0  0  0  0  0
    6.0658   17.6599    0.9070 H   0  0  0  0  0  0  0  0  0  0  0  0
    4.7030   18.7784    1.1055 H   0  0  0  0  0  0  0  0  0  0  0  0
    6.2998   19.1934    1.7984 H   0  0  0  0  0  0  0  0  0  0  0  0
    5.8203   21.1774   -1.3746 H   0  0  0  0  0  0  0  0  0  0  0  0
    6.1152   21.4008    0.3764 H   0  0  0  0  0  0  0  0  0  0  0  0
    4.5476   20.7646   -0.1994 H   0  0  0  0  0  0  0  0  0  0  0  0
    8.9580   15.6008   -1.9457 H   0  0  0  0  0  0  0  0  0  0  0  0
    9.0625   13.4283   -3.1328 H   0  0  0  0  0  0  0  0  0  0  0  0
    6.1090    9.5431   -4.3909 H   0  0  0  0  0  0  0  0  0  0  0  0
    6.2515    7.3252   -5.5306 H   0  0  0  0  0  0  0  0  0  0  0  0
    7.2065    5.6550  -11.8480 H   0  0  0  0  0  0  0  0  0  0  0  0
    9.4659    2.8875  -11.3036 H   0  0  0  0  0  0  0  0  0  0  0  0
   11.5494    1.8161  -12.1902 H   0  0  0  0  0  0  0  0  0  0  0  0
    8.6194    0.7958  -18.1517 H   0  0  0  0  0  0  0  0  0  0  0  0
    6.4920    1.8563  -17.3201 H   0  0  0  0  0  0  0  0  0  0  0  0
    6.3652    2.7170  -14.9914 H   0  0  0  0  0  0  0  0  0  0  0  0
   12.8949   -1.1553  -17.0472 H   0  0  0  0  0  0  0  0  0  0  0  0
   13.7764   -0.6169  -15.5845 H   0  0  0  0  0  0  0  0  0  0  0  0
   13.4937    0.9176  -18.2360 H   0  0  0  0  0  0  0  0  0  0  0  0
   14.9135    0.0137  -17.7123 H   0  0  0  0  0  0  0  0  0  0  0  0
   15.1817    1.5835  -15.7431 H   0  0  0  0  0  0  0  0  0  0  0  0
   13.7938    2.5085  -16.2997 H   0  0  0  0  0  0  0  0  0  0  0  0
   16.4070    2.1280  -17.9037 H   0  0  0  0  0  0  0  0  0  0  0  0
   15.9121    3.6078  -17.0505 H   0  0  0  0  0  0  0  0  0  0  0  0
   14.9937    3.0455  -18.4669 H   0  0  0  0  0  0  0  0  0  0  0  0
    6.6773    1.5128  -10.7682 H   0  0  0  0  0  0  0  0  0  0  0  0
    8.4090    2.8962   -7.5077 H   0  0  0  0  0  0  0  0  0  0  0  0
    9.4197    2.4120   -5.2690 H   0  0  0  0  0  0  0  0  0  0  0  0
  1  2  1  0
  1 76  1  0
  1 77  1  0
  1 78  1  0
  2  3  1  0
  2 79  1  0
  2 80  1  0
  3  4  1  0
  3 81  1  0
  3 82  1  0
  4  5  1  0
  4 83  1  0
  4 84  1  0
  5  6  1  0
  5 74  1  0
  6  7  2  0
  6  8  1  0
  8  9  1  0
  8 73  2  0
  9 10  2  0
  9 85  1  0
 10 11  1  0
 10 86  1  0
 11 12  2  0
 11 87  1  0
 12 13  1  0
 12 73  1  0
 13 14  1  0
 13 70  2  0
 14 15  1  0
 15 16  2  0
 15 69  1  0
 16 17  1  0
 16 88  1  0
 17 18  1  0
 17 47  2  0
 18 19  1  0
 18 89  1  0
 18 90  1  0
 19 20  1  0
 20 21  2  0
 20 46  1  0
 21 22  1  0
 21 91  1  0
 22 23  2  0
 22 92  1  0
 23 24  1  0
 23 45  1  0
 24 25  1  0
 24 43  1  0
 25 26  2  0
 25 27  1  0
 27 28  2  0
 27 42  1  0
 28 29  1  0
 28 93  1  0
 29 30  2  0
 29 94  1  0
 30 31  1  0
 30 95  1  0
 31 32  1  0
 31 42  2  0
 32 33  1  0
 32 39  2  0
 33 34  1  0
 33 96  1  0
 34 35  1  0
 34 97  1  0
 34 98  1  0
 35 36  1  0
 35 99  1  0
 35100  1  0
 36 37  1  0
 36 38  1  0
 37101  1  0
 37102  1  0
 37103  1  0
 38104  1  0
 38105  1  0
 38106  1  0
 39 40  1  0
 39107  1  0
 40 41  2  0
 40108  1  0
 41 42  1  0
 41 43  1  0
 43 44  2  0
 45 46  2  0
 45109  1  0
 46110  1  0
 47 48  1  0
 47111  1  0
 48 49  1  0
 48 69  2  0
 49 50  1  0
 50 51  2  0
 50 59  1  0
 51 52  1  0
 51112  1  0
 52 53  2  0
 52113  1  0
 53 54  1  0
 53 67  1  0
 54 55  1  0
 54 59  2  0
 55 56  2  0
 55 60  1  0
 56 57  1  0
 56114  1  0
 57 58  2  0
 57115  1  0
 58 59  1  0
 58116  1  0
 60 61  2  0
 60 62  1  0
 62 63  1  0
 62 67  1  0
 63 64  1  0
 63117  1  0
 63118  1  0
 64 65  1  0
 64119  1  0
 64120  1  0
 65 66  1  0
 65121  1  0
 65122  1  0
 66123  1  0
 66124  1  0
 66125  1  0
 67 68  2  0
 69126  1  0
 70 71  1  0
 70127  1  0
 71 72  2  0
 71128  1  0
 72 73  1  0
 72 74  1  0
 74 75  2  0
M  END

