
     RDKit          3D

 72 75  0  0  0  0  0  0  0  0999 V2000
    2.6356    1.7030    0.2953 C   0  0  0  0  0  0  0  0  0  0  0  0
    2.4866    0.2960    0.8864 C   0  0  0  0  0  0  0  0  0  0  0  0
    2.7037   -0.7904   -0.0623 N   0  0  0  0  0  0  0  0  0  0  0  0
    1.5943   -1.2340   -0.9078 C   0  0  0  0  0  0  0  0  0  0  0  0
    0.2001   -1.0625   -0.3115 C   0  0  0  0  0  0  0  0  0  0  0  0
    3.9994   -1.1293   -0.4396 C   0  0  0  0  0  0  0  0  0  0  0  0
    5.1367   -0.6891    0.2858 C   0  0  0  0  0  0  0  0  0  0  0  0
    6.4214   -1.0732   -0.0779 C   0  0  0  0  0  0  0  0  0  0  0  0
    6.6806   -1.9051   -1.1870 C   0  0  0  0  0  0  0  0  0  0  0  0
    8.0539   -2.2706   -1.5133 C   0  0  0  0  0  0  0  0  0  0  0  0
    8.4784   -3.0628   -2.5311 C   0  0  0  0  0  0  0  0  0  0  0  0
    9.8557   -3.4012   -2.8199 C   0  0  0  0  0  0  0  0  0  0  0  0
   11.0361   -3.0353   -2.1870 C   0  0  0  0  0  0  0  0  0  0  0  0
   12.1954   -3.5828   -2.7817 C   0  0  0  0  0  0  0  0  0  0  0  0
   11.9377   -4.3835   -3.8870 C   0  0  0  0  0  0  0  0  0  0  0  0
   12.8674   -5.0964   -4.7317 C   0  0  0  0  0  0  0  0  0  0  0  0
   12.6101   -5.8931   -5.8399 C   0  0  0  0  0  0  0  0  0  0  0  0
   13.7694   -6.4416   -6.4337 C   0  0  0  0  0  0  0  0  0  0  0  0
   14.9493   -6.0808   -5.7970 C   0  0  0  0  0  0  0  0  0  0  0  0
   16.3264   -6.4222   -6.0832 C   0  0  0  0  0  0  0  0  0  0  0  0
   16.7511   -7.2143   -7.1012 C   0  0  0  0  0  0  0  0  0  0  0  0
   18.1235   -7.5851   -7.4241 C   0  0  0  0  0  0  0  0  0  0  0  0
   19.2544   -7.1542   -6.6975 C   0  0  0  0  0  0  0  0  0  0  0  0
   20.5444   -7.5308   -7.0444 C   0  0  0  0  0  0  0  0  0  0  0  0
   20.8011   -8.3849   -8.1517 C   0  0  0  0  0  0  0  0  0  0  0  0
   22.0859   -8.7940   -8.4771 N   0  0  0  0  0  0  0  0  0  0  0  0
   23.2394   -8.3309   -7.7153 C   0  0  0  0  0  0  0  0  0  0  0  0
   23.7640   -6.9401   -8.0938 C   0  0  0  0  0  0  0  0  0  0  0  0
   22.3306   -9.6503   -9.6312 C   0  0  0  0  0  0  0  0  0  0  0  0
   22.3889   -8.9312  -10.9849 C   0  0  0  0  0  0  0  0  0  0  0  0
   19.6674   -8.8074   -8.8922 C   0  0  0  0  0  0  0  0  0  0  0  0
   18.3822   -8.4204   -8.5298 C   0  0  0  0  0  0  0  0  0  0  0  0
   14.5914   -5.0381   -4.4346 S   0  0  0  0  0  0  0  0  0  0  0  0
   10.2131   -4.4473   -4.1798 S   0  0  0  0  0  0  0  0  0  0  0  0
    5.5514   -2.3227   -1.9213 C   0  0  0  0  0  0  0  0  0  0  0  0
    4.2601   -1.9483   -1.5719 C   0  0  0  0  0  0  0  0  0  0  0  0
    2.4647    2.4685    1.0699 H   0  0  0  0  0  0  0  0  0  0  0  0
    1.9077    1.8750   -0.5142 H   0  0  0  0  0  0  0  0  0  0  0  0
    3.6428    1.8587   -0.1210 H   0  0  0  0  0  0  0  0  0  0  0  0
    1.4839    0.1828    1.3187 H   0  0  0  0  0  0  0  0  0  0  0  0
    3.1734    0.1692    1.7364 H   0  0  0  0  0  0  0  0  0  0  0  0
    1.7362   -2.3076   -1.1095 H   0  0  0  0  0  0  0  0  0  0  0  0
    1.6277   -0.7333   -1.8985 H   0  0  0  0  0  0  0  0  0  0  0  0
    0.1105   -1.5622    0.6661 H   0  0  0  0  0  0  0  0  0  0  0  0
   -0.5315   -1.5264   -0.9910 H   0  0  0  0  0  0  0  0  0  0  0  0
   -0.0926   -0.0085   -0.1914 H   0  0  0  0  0  0  0  0  0  0  0  0
    5.0244   -0.0405    1.1531 H   0  0  0  0  0  0  0  0  0  0  0  0
    7.2632   -0.7119    0.5205 H   0  0  0  0  0  0  0  0  0  0  0  0
    8.8096   -1.8451   -0.8436 H   0  0  0  0  0  0  0  0  0  0  0  0
    7.7359   -3.4981   -3.2075 H   0  0  0  0  0  0  0  0  0  0  0  0
   11.0632   -2.3848   -1.3119 H   0  0  0  0  0  0  0  0  0  0  0  0
   13.2061   -3.3983   -2.4129 H   0  0  0  0  0  0  0  0  0  0  0  0
   11.5999   -6.0735   -6.2118 H   0  0  0  0  0  0  0  0  0  0  0  0
   13.7426   -7.0891   -7.3111 H   0  0  0  0  0  0  0  0  0  0  0  0
   17.0683   -5.9905   -5.4039 H   0  0  0  0  0  0  0  0  0  0  0  0
   15.9954   -7.6377   -7.7724 H   0  0  0  0  0  0  0  0  0  0  0  0
   19.1279   -6.4988   -5.8325 H   0  0  0  0  0  0  0  0  0  0  0  0
   21.3665   -7.1500   -6.4402 H   0  0  0  0  0  0  0  0  0  0  0  0
   24.0427   -9.0717   -7.8543 H   0  0  0  0  0  0  0  0  0  0  0  0
   22.9977   -8.3567   -6.6396 H   0  0  0  0  0  0  0  0  0  0  0  0
   24.1074   -6.9117   -9.1395 H   0  0  0  0  0  0  0  0  0  0  0  0
   24.6158   -6.6646   -7.4504 H   0  0  0  0  0  0  0  0  0  0  0  0
   22.9864   -6.1700   -7.9758 H   0  0  0  0  0  0  0  0  0  0  0  0
   21.5634  -10.4419   -9.6638 H   0  0  0  0  0  0  0  0  0  0  0  0
   23.2851  -10.1717   -9.4561 H   0  0  0  0  0  0  0  0  0  0  0  0
   21.4542   -8.3888  -11.1939 H   0  0  0  0  0  0  0  0  0  0  0  0
   22.5487   -9.6589  -11.7975 H   0  0  0  0  0  0  0  0  0  0  0  0
   23.2135   -8.2025  -11.0169 H   0  0  0  0  0  0  0  0  0  0  0  0
   19.7832   -9.4472   -9.7656 H   0  0  0  0  0  0  0  0  0  0  0  0
   17.5409   -8.7772   -9.1316 H   0  0  0  0  0  0  0  0  0  0  0  0
    5.6792   -2.9549   -2.8033 H   0  0  0  0  0  0  0  0  0  0  0  0
    3.4440   -2.2986   -2.2008 H   0  0  0  0  0  0  0  0  0  0  0  0
  1  2  1  0
  1 37  1  0
  1 38  1  0
  1 39  1  0
  2  3  1  0
  2 40  1  0
  2 41  1  0
  3  4  1  0
  3  6  1  0
  4  5  1  0
  4 42  1  0
  4 43  1  0
  5 44  1  0
  5 45  1  0
  5 46  1  0
  6  7  2  0
  6 36  1  0
  7  8  1  0
  7 47  1  0
  8  9  2  0
  8 48  1  0
  9 10  1  0
  9 35  1  0
 10 11  2  0
 10 49  1  0
 11 12  1  0
 11 50  1  0
 12 13  2  0
 12 34  1  0
 13 14  1  0
 13 51  1  0
 14 15  2  0
 14 52  1  0
 15 16  1  0
 15 34  1  0
 16 17  2  0
 16 33  1  0
 17 18  1  0
 17 53  1  0
 18 19  2  0
 18 54  1  0
 19 20  1  0
 19 33  1  0
 20 21  2  0
 20 55  1  0
 21 22  1  0
 21 56  1  0
 22 23  2  0
 22 32  1  0
 23 24  1  0
 23 57  1  0
 24 25  2  0
 24 58  1  0
 25 26  1  0
 25 31  1  0
 26 27  1  0
 26 29  1  0
 27 28  1  0
 27 59  1  0
 27 60  1  0
 28 61  1  0
 28 62  1  0
 28 63  1  0
 29 30  1  0
 29 64  1  0
 29 65  1  0
 30 66  1  0
 30 67  1  0
 30 68  1  0
 31 32  2  0
 31 69  1  0
 32 70  1  0
 35 36  2  0
 35 71  1  0
 36 72  1  0
M  END

