
     RDKit          3D

 44 47  0  0  0  0  0  0  0  0999 V2000
    1.8518    0.2685    2.0086 N   0  0  0  0  0  0  0  0  0  0  0  0
    2.8375    0.1825    1.4024 C   0  0  0  0  0  0  0  0  0  0  0  0
    4.0767    0.1302    0.6771 C   0  0  0  0  0  0  0  0  0  0  0  0
    4.9882    1.1877    0.8306 C   0  0  0  0  0  0  0  0  0  0  0  0
    6.2074    1.1821    0.1570 C   0  0  0  0  0  0  0  0  0  0  0  0
    6.5302    0.1148   -0.6869 C   0  0  0  0  0  0  0  0  0  0  0  0
    7.7621    0.1295   -1.4007 N   0  0  0  0  0  0  0  0  0  0  0  0
    8.2018    1.2415   -2.1285 C   0  0  0  0  0  0  0  0  0  0  0  0
    7.6322    2.3009   -2.2252 O   0  0  0  0  0  0  0  0  0  0  0  0
    9.5243    0.8523   -2.7717 C   0  0  1  0  0  0  0  0  0  0  0  0
    9.5556    1.1557   -4.3028 C   0  0  0  0  0  0  0  0  0  0  0  0
   10.2875    2.4841   -3.9897 C   0  0  0  0  0  0  0  0  0  0  0  0
   10.6302    1.9366   -2.5820 C   0  0  0  0  0  0  0  0  0  0  0  0
    9.7090   -0.5063   -2.2745 N   0  0  0  0  0  0  0  0  0  0  0  0
   10.8473   -1.3150   -2.5829 C   0  0  0  0  0  0  0  0  0  0  0  0
   11.9967   -1.2435   -1.7795 C   0  0  0  0  0  0  0  0  0  0  0  0
   13.1141   -2.0097   -2.0968 C   0  0  0  0  0  0  0  0  0  0  0  0
   13.0912   -2.8595   -3.2149 C   0  0  0  0  0  0  0  0  0  0  0  0
   14.2871   -3.6774   -3.5524 C   0  0  0  0  0  0  0  0  0  0  0  0
   15.3226   -3.6612   -2.9301 O   0  0  0  0  0  0  0  0  0  0  0  0
   11.9370   -2.9366   -4.0068 C   0  0  0  0  0  0  0  0  0  0  0  0
   10.8158   -2.1677   -3.6937 C   0  0  0  0  0  0  0  0  0  0  0  0
    8.6890   -0.9349   -1.4686 C   0  0  0  0  0  0  0  0  0  0  0  0
    8.5755   -2.3894   -0.7011 S   0  0  0  0  0  0  0  0  0  0  0  0
    5.6245   -0.9409   -0.8590 C   0  0  0  0  0  0  0  0  0  0  0  0
    4.4078   -0.9427   -0.1825 C   0  0  0  0  0  0  0  0  0  0  0  0
    3.4431   -2.0956   -0.3850 C   0  0  1  0  0  0  0  0  0  0  0  0
    2.2653   -1.6652   -0.8645 F   0  0  0  0  0  0  0  0  0  0  0  0
    3.9260   -2.9970   -1.2543 F   0  0  0  0  0  0  0  0  0  0  0  0
    3.1987   -2.7359    0.7679 F   0  0  0  0  0  0  0  0  0  0  0  0
    4.7333    2.0178    1.4912 H   0  0  0  0  0  0  0  0  0  0  0  0
    6.9023    2.0115    0.2833 H   0  0  0  0  0  0  0  0  0  0  0  0
    8.5815    1.2031   -4.8110 H   0  0  0  0  0  0  0  0  0  0  0  0
   10.2042    0.4356   -4.8222 H   0  0  0  0  0  0  0  0  0  0  0  0
    9.5921    3.3323   -3.9405 H   0  0  0  0  0  0  0  0  0  0  0  0
   11.1360    2.7446   -4.6377 H   0  0  0  0  0  0  0  0  0  0  0  0
   10.5112    2.6073   -1.7186 H   0  0  0  0  0  0  0  0  0  0  0  0
   11.6254    1.4711   -2.5483 H   0  0  0  0  0  0  0  0  0  0  0  0
   11.9968   -0.5942   -0.9019 H   0  0  0  0  0  0  0  0  0  0  0  0
   14.0202   -1.9732   -1.4881 H   0  0  0  0  0  0  0  0  0  0  0  0
   14.1631   -4.3327   -4.4537 H   0  0  0  0  0  0  0  0  0  0  0  0
   11.9166   -3.6065   -4.8715 H   0  0  0  0  0  0  0  0  0  0  0  0
    9.9080   -2.2323   -4.2962 H   0  0  0  0  0  0  0  0  0  0  0  0
    5.8733   -1.7691   -1.5183 H   0  0  0  0  0  0  0  0  0  0  0  0
  1  2  3  0
  2  3  1  0
  3  4  2  0
  3 26  1  0
  4  5  1  0
  4 31  1  0
  5  6  2  0
  5 32  1  0
  6  7  1  0
  6 25  1  0
  7  8  1  0
  7 23  1  0
  8  9  2  0
 10  8  1  1
 10 11  1  0
 10 13  1  0
 10 14  1  0
 11 12  1  0
 11 33  1  0
 11 34  1  0
 12 13  1  0
 12 35  1  0
 12 36  1  0
 13 37  1  0
 13 38  1  0
 14 15  1  0
 14 23  1  0
 15 16  2  0
 15 22  1  0
 16 17  1  0
 16 39  1  0
 17 18  2  0
 17 40  1  0
 18 19  1  0
 18 21  1  0
 19 20  2  0
 19 41  1  0
 21 22  2  0
 21 42  1  0
 22 43  1  0
 23 24  2  0
 25 26  2  0
 25 44  1  0
 26 27  1  0
 27 28  1  6
 27 29  1  0
 27 30  1  0
M  END

