
     RDKit          3D

 57 59  0  0  0  0  0  0  0  0999 V2000
    3.2396   -6.7190   -1.6697 C   0  0  0  0  0  0  0  0  0  0  0  0
    2.9429   -5.5783   -0.8312 N   0  0  0  0  0  0  0  0  0  0  0  0
    3.9152   -4.9809   -0.0339 C   0  0  0  0  0  0  0  0  0  0  0  0
    5.2033   -5.5269    0.0875 C   0  0  0  0  0  0  0  0  0  0  0  0
    6.1662   -4.9295    0.9119 C   0  0  0  0  0  0  0  0  0  0  0  0
    7.5081   -5.5790    0.9796 C   0  0  0  0  0  0  0  0  0  0  0  0
    7.8169   -6.5867    0.3832 O   0  0  0  0  0  0  0  0  0  0  0  0
    8.3637   -4.9208    1.7882 O   0  0  0  0  0  0  0  0  0  0  0  0
    9.6710   -5.4752    1.9043 C   0  0  0  0  0  0  0  0  0  0  0  0
    5.8565   -3.7626    1.6202 C   0  0  0  0  0  0  0  0  0  0  0  0
    4.5742   -3.2206    1.5085 C   0  0  0  0  0  0  0  0  0  0  0  0
    3.5914   -3.8124    0.7138 C   0  0  0  0  0  0  0  0  0  0  0  0
    2.1814   -3.2657    0.5944 C   0  0  0  0  0  0  0  0  0  0  0  0
    1.7733   -2.2363    1.5566 N   0  0  0  0  0  0  0  0  0  0  0  0
    2.1630   -0.9388    1.2950 C   0  0  0  0  0  0  0  0  0  0  0  0
    2.8751   -0.6134    0.3704 O   0  0  0  0  0  0  0  0  0  0  0  0
    0.6712   -2.4775    2.4407 C   0  0  0  0  0  0  0  0  0  0  0  0
   -0.4947   -1.7261    2.2578 C   0  0  0  0  0  0  0  0  0  0  0  0
   -1.6062   -1.8923    3.0974 C   0  0  0  0  0  0  0  0  0  0  0  0
   -2.6786   -1.0994    2.8296 O   0  0  0  0  0  0  0  0  0  0  0  0
   -3.8413   -1.2254    3.6164 C   0  0  0  0  0  0  0  0  0  0  0  0
   -4.8886   -0.2507    3.1337 C   0  0  0  0  0  0  0  0  0  0  0  0
   -4.6799    0.6484    2.0798 C   0  0  0  0  0  0  0  0  0  0  0  0
   -5.6934    1.5267    1.6851 C   0  0  0  0  0  0  0  0  0  0  0  0
   -6.9312    1.5237    2.3338 C   0  0  0  0  0  0  0  0  0  0  0  0
   -7.1429    0.6321    3.3813 C   0  0  0  0  0  0  0  0  0  0  0  0
   -8.3133    0.6000    4.0249 F   0  0  0  0  0  0  0  0  0  0  0  0
   -6.1301   -0.2443    3.7746 C   0  0  0  0  0  0  0  0  0  0  0  0
   -6.3539   -1.0966    4.7875 F   0  0  0  0  0  0  0  0  0  0  0  0
   -1.5518   -2.8473    4.1184 C   0  0  0  0  0  0  0  0  0  0  0  0
   -0.3844   -3.6009    4.2819 C   0  0  0  0  0  0  0  0  0  0  0  0
    0.7479   -3.4433    3.4748 C   0  0  0  0  0  0  0  0  0  0  0  0
    1.9882   -4.2594    3.7343 C   0  0  0  0  0  0  0  0  0  0  0  0
    2.3277   -7.0124   -2.2095 H   0  0  0  0  0  0  0  0  0  0  0  0
    3.5546   -7.5808   -1.0595 H   0  0  0  0  0  0  0  0  0  0  0  0
    4.0374   -6.5291   -2.4153 H   0  0  0  0  0  0  0  0  0  0  0  0
    2.2610   -4.9422   -1.2252 H   0  0  0  0  0  0  0  0  0  0  0  0
    5.4919   -6.4241   -0.4582 H   0  0  0  0  0  0  0  0  0  0  0  0
   10.2233   -4.8188    2.5884 H   0  0  0  0  0  0  0  0  0  0  0  0
   10.1713   -5.5117    0.9243 H   0  0  0  0  0  0  0  0  0  0  0  0
    9.6301   -6.4987    2.3079 H   0  0  0  0  0  0  0  0  0  0  0  0
    6.6089   -3.2881    2.2494 H   0  0  0  0  0  0  0  0  0  0  0  0
    4.3307   -2.3141    2.0634 H   0  0  0  0  0  0  0  0  0  0  0  0
    1.4657   -4.0986    0.6747 H   0  0  0  0  0  0  0  0  0  0  0  0
    2.0574   -2.8296   -0.4163 H   0  0  0  0  0  0  0  0  0  0  0  0
    1.7601   -0.2174    2.0421 H   0  0  0  0  0  0  0  0  0  0  0  0
   -0.5678   -1.0072    1.4406 H   0  0  0  0  0  0  0  0  0  0  0  0
   -3.6141   -1.0302    4.6823 H   0  0  0  0  0  0  0  0  0  0  0  0
   -4.2391   -2.2572    3.5632 H   0  0  0  0  0  0  0  0  0  0  0  0
   -3.7136    0.6476    1.5764 H   0  0  0  0  0  0  0  0  0  0  0  0
   -5.5186    2.2231    0.8622 H   0  0  0  0  0  0  0  0  0  0  0  0
   -7.7399    2.1985    2.0464 H   0  0  0  0  0  0  0  0  0  0  0  0
   -2.3942   -3.0150    4.7890 H   0  0  0  0  0  0  0  0  0  0  0  0
   -0.3497   -4.3364    5.0903 H   0  0  0  0  0  0  0  0  0  0  0  0
    1.9044   -4.7945    4.6912 H   0  0  0  0  0  0  0  0  0  0  0  0
    2.8887   -3.6287    3.7704 H   0  0  0  0  0  0  0  0  0  0  0  0
    2.1694   -5.0126    2.9500 H   0  0  0  0  0  0  0  0  0  0  0  0
  1  2  1  0
  1 34  1  0
  1 35  1  0
  1 36  1  0
  2  3  1  0
  2 37  1  0
  3  4  2  0
  3 12  1  0
  4  5  1  0
  4 38  1  0
  5  6  1  0
  5 10  2  0
  6  7  2  0
  6  8  1  0
  8  9  1  0
  9 39  1  0
  9 40  1  0
  9 41  1  0
 10 11  1  0
 10 42  1  0
 11 12  2  0
 11 43  1  0
 12 13  1  0
 13 14  1  0
 13 44  1  0
 13 45  1  0
 14 15  1  0
 14 17  1  0
 15 16  2  0
 15 46  1  0
 17 18  2  0
 17 32  1  0
 18 19  1  0
 18 47  1  0
 19 20  1  0
 19 30  2  0
 20 21  1  0
 21 22  1  0
 21 48  1  0
 21 49  1  0
 22 23  2  0
 22 28  1  0
 23 24  1  0
 23 50  1  0
 24 25  2  0
 24 51  1  0
 25 26  1  0
 25 52  1  0
 26 27  1  0
 26 28  2  0
 28 29  1  0
 30 31  1  0
 30 53  1  0
 31 32  2  0
 31 54  1  0
 32 33  1  0
 33 55  1  0
 33 56  1  0
 33 57  1  0
M  END

