
     RDKit          3D

 56 59  0  0  0  0  0  0  0  0999 V2000
    2.6642   -2.9740    0.2516 O   0  0  0  0  0  0  0  0  0  0  0  0
    3.2993   -1.9394    0.1101 C   0  0  0  0  0  0  0  0  0  0  0  0
    2.9166   -0.9270   -0.9817 C   0  0  0  0  0  0  0  0  0  0  0  0
    2.0057   -1.5383   -1.8743 O   0  0  0  0  0  0  0  0  0  0  0  0
    2.5586   -2.3341   -2.8398 C   0  0  0  0  0  0  0  0  0  0  0  0
    3.7409   -2.3038   -3.0831 O   0  0  0  0  0  0  0  0  0  0  0  0
    1.5593   -3.1601   -3.5687 C   0  0  0  0  0  0  0  0  0  0  0  0
    1.8915   -3.4420   -4.9063 C   0  0  0  0  0  0  0  0  0  0  0  0
    1.0461   -4.1787   -5.7268 C   0  0  0  0  0  0  0  0  0  0  0  0
   -0.1500   -4.6663   -5.1904 C   0  0  0  0  0  0  0  0  0  0  0  0
   -0.4891   -4.4393   -3.8590 C   0  0  0  0  0  0  0  0  0  0  0  0
    0.3562   -3.6882   -3.0134 C   0  0  0  0  0  0  0  0  0  0  0  0
    0.0513   -3.4898   -1.6607 N   0  0  0  0  0  0  0  0  0  0  0  0
   -1.0631   -3.9157   -0.9632 C   0  0  0  0  0  0  0  0  0  0  0  0
   -1.9381   -4.6303   -1.4269 O   0  0  0  0  0  0  0  0  0  0  0  0
   -1.1524   -3.4258    0.4597 C   0  0  0  0  0  0  0  0  0  0  0  0
   -0.5594   -2.2355    0.9075 C   0  0  0  0  0  0  0  0  0  0  0  0
   -0.7346   -1.8129    2.2279 C   0  0  0  0  0  0  0  0  0  0  0  0
   -1.4959   -2.5792    3.1150 C   0  0  0  0  0  0  0  0  0  0  0  0
   -2.0963   -3.7637    2.6730 C   0  0  0  0  0  0  0  0  0  0  0  0
   -1.9349   -4.1777    1.3511 C   0  0  0  0  0  0  0  0  0  0  0  0
    4.3446   -1.5817    0.8931 N   0  0  0  0  0  0  0  0  0  0  0  0
    4.8411   -2.4365    1.9858 C   0  0  2  0  0  0  0  0  0  0  0  0
    4.0507   -2.2185    3.2856 C   0  0  0  0  0  0  0  0  0  0  0  0
    4.4650   -0.9169    3.9707 C   0  0  0  0  0  0  0  0  0  0  0  0
    5.9416   -0.9779    4.3689 C   0  0  0  0  0  0  0  0  0  0  0  0
    6.8459   -1.4791    3.2573 C   0  0  0  0  0  0  0  0  0  0  0  0
    8.2332   -1.2627    3.3353 C   0  0  0  0  0  0  0  0  0  0  0  0
    9.0998   -1.7387    2.3533 C   0  0  0  0  0  0  0  0  0  0  0  0
    8.5894   -2.4497    1.2608 C   0  0  0  0  0  0  0  0  0  0  0  0
    7.2169   -2.6708    1.1689 C   0  0  0  0  0  0  0  0  0  0  0  0
    6.3354   -2.1958    2.1560 C   0  0  0  0  0  0  0  0  0  0  0  0
    3.8082   -0.5649   -1.5152 H   0  0  0  0  0  0  0  0  0  0  0  0
    2.3880   -0.0749   -0.5279 H   0  0  0  0  0  0  0  0  0  0  0  0
    2.8369   -3.0495   -5.2849 H   0  0  0  0  0  0  0  0  0  0  0  0
    1.3144   -4.3718   -6.7676 H   0  0  0  0  0  0  0  0  0  0  0  0
   -0.8329   -5.2491   -5.8144 H   0  0  0  0  0  0  0  0  0  0  0  0
   -1.4032   -4.8496   -3.4398 H   0  0  0  0  0  0  0  0  0  0  0  0
    0.7821   -3.0471   -1.1066 H   0  0  0  0  0  0  0  0  0  0  0  0
    0.0203   -1.6204    0.2176 H   0  0  0  0  0  0  0  0  0  0  0  0
   -0.2809   -0.8766    2.5633 H   0  0  0  0  0  0  0  0  0  0  0  0
   -1.6290   -2.2495    4.1488 H   0  0  0  0  0  0  0  0  0  0  0  0
   -2.6979   -4.3625    3.3616 H   0  0  0  0  0  0  0  0  0  0  0  0
   -2.4134   -5.0859    0.9804 H   0  0  0  0  0  0  0  0  0  0  0  0
    4.8749   -0.7491    0.6611 H   0  0  0  0  0  0  0  0  0  0  0  0
    4.6725   -3.4706    1.6476 H   0  0  0  0  0  0  0  0  0  0  0  0
    4.2481   -3.0709    3.9594 H   0  0  0  0  0  0  0  0  0  0  0  0
    2.9747   -2.2423    3.0563 H   0  0  0  0  0  0  0  0  0  0  0  0
    3.8409   -0.7250    4.8580 H   0  0  0  0  0  0  0  0  0  0  0  0
    4.2942   -0.0701    3.2815 H   0  0  0  0  0  0  0  0  0  0  0  0
    6.0501   -1.6574    5.2356 H   0  0  0  0  0  0  0  0  0  0  0  0
    6.2965    0.0061    4.7176 H   0  0  0  0  0  0  0  0  0  0  0  0
    8.6346   -0.7068    4.1880 H   0  0  0  0  0  0  0  0  0  0  0  0
   10.1742   -1.5559    2.4377 H   0  0  0  0  0  0  0  0  0  0  0  0
    9.2598   -2.8309    0.4866 H   0  0  0  0  0  0  0  0  0  0  0  0
    6.8109   -3.2245    0.3171 H   0  0  0  0  0  0  0  0  0  0  0  0
  1  2  2  0
  2  3  1  0
  2 22  1  0
  3  4  1  0
  3 33  1  0
  3 34  1  0
  4  5  1  0
  5  6  2  0
  5  7  1  0
  7  8  2  0
  7 12  1  0
  8  9  1  0
  8 35  1  0
  9 10  2  0
  9 36  1  0
 10 11  1  0
 10 37  1  0
 11 12  2  0
 11 38  1  0
 12 13  1  0
 13 14  1  0
 13 39  1  0
 14 15  2  0
 14 16  1  0
 16 17  2  0
 16 21  1  0
 17 18  1  0
 17 40  1  0
 18 19  2  0
 18 41  1  0
 19 20  1  0
 19 42  1  0
 20 21  2  0
 20 43  1  0
 21 44  1  0
 22 23  1  0
 22 45  1  0
 23 24  1  0
 23 32  1  0
 23 46  1  6
 24 25  1  0
 24 47  1  0
 24 48  1  0
 25 26  1  0
 25 49  1  0
 25 50  1  0
 26 27  1  0
 26 51  1  0
 26 52  1  0
 27 28  2  0
 27 32  1  0
 28 29  1  0
 28 53  1  0
 29 30  2  0
 29 54  1  0
 30 31  1  0
 30 55  1  0
 31 32  2  0
 31 56  1  0
M  END

