
     RDKit          3D

 49 52  0  0  0  0  0  0  0  0999 V2000
    1.1022   -0.3390   -0.4403 C   0  0  0  0  0  0  0  0  0  0  0  0
    2.5723   -0.1648   -0.2366 C   0  0  0  0  0  0  0  0  0  0  0  0
    3.2773    1.0092   -0.0916 C   0  0  0  0  0  0  0  0  0  0  0  0
    2.8565    2.4262   -0.0909 C   0  0  0  0  0  0  0  0  0  0  0  0
    1.6883    2.7586   -0.2300 O   0  0  0  0  0  0  0  0  0  0  0  0
    3.9011    3.3104    0.0789 N   0  0  0  0  0  0  0  0  0  0  0  0
    3.8543    4.7071    0.1292 C   0  0  0  0  0  0  0  0  0  0  0  0
    2.6926    5.4896    0.0056 C   0  0  0  0  0  0  0  0  0  0  0  0
    2.7795    6.8836    0.0735 C   0  0  0  0  0  0  0  0  0  0  0  0
    4.0062    7.5245    0.2631 C   0  0  0  0  0  0  0  0  0  0  0  0
    5.1716    6.7597    0.3876 C   0  0  0  0  0  0  0  0  0  0  0  0
    5.0767    5.3790    0.3191 C   0  0  0  0  0  0  0  0  0  0  0  0
    6.1923    4.6218    0.4374 F   0  0  0  0  0  0  0  0  0  0  0  0
    4.6270    0.7476    0.0746 O   0  0  0  0  0  0  0  0  0  0  0  0
    4.7827   -0.5870    0.0357 C   0  0  0  0  0  0  0  0  0  0  0  0
    3.5704   -1.2094   -0.1497 C   0  0  0  0  0  0  0  0  0  0  0  0
    3.4659   -2.6658   -0.1814 C   0  0  0  0  0  0  0  0  0  0  0  0
    2.3006   -3.1942   -0.3390 N   0  0  0  0  0  0  0  0  0  0  0  0
    2.1590   -4.5364   -0.3248 N   0  0  0  0  0  0  0  0  0  0  0  0
    0.8987   -5.1022   -0.4433 C   0  0  0  0  0  0  0  0  0  0  0  0
   -0.1245   -4.4578   -0.5210 O   0  0  0  0  0  0  0  0  0  0  0  0
    0.8917   -6.6103   -0.4492 C   0  0  0  0  0  0  0  0  0  0  0  0
    1.9799   -7.4169   -0.8169 C   0  0  0  0  0  0  0  0  0  0  0  0
    1.9376   -8.7499   -0.8285 N   0  0  0  0  0  0  0  0  0  0  0  0
    0.8036   -9.3554   -0.4821 C   0  0  0  0  0  0  0  0  0  0  0  0
   -0.3490   -8.6388   -0.1251 C   0  0  0  0  0  0  0  0  0  0  0  0
   -1.9388   -9.5738    0.3319 Br  0  0  0  0  0  0  0  0  0  0  0  0
   -0.3113   -7.2481   -0.1131 C   0  0  0  0  0  0  0  0  0  0  0  0
    4.7712   -3.4235    0.0426 C   0  0  0  0  0  0  0  0  0  0  0  0
    6.0202   -2.6488   -0.4205 C   0  0  0  0  0  0  0  0  0  0  0  0
    6.1119   -1.2366    0.1835 C   0  0  0  0  0  0  0  0  0  0  0  0
    0.5941    0.6319   -0.4442 H   0  0  0  0  0  0  0  0  0  0  0  0
    0.6785   -0.9856    0.3436 H   0  0  0  0  0  0  0  0  0  0  0  0
    0.9064   -0.8673   -1.3867 H   0  0  0  0  0  0  0  0  0  0  0  0
    4.8254    2.9057    0.1856 H   0  0  0  0  0  0  0  0  0  0  0  0
    1.7398    4.9868   -0.1421 H   0  0  0  0  0  0  0  0  0  0  0  0
    1.8657    7.4745   -0.0246 H   0  0  0  0  0  0  0  0  0  0  0  0
    4.0629    8.6139    0.3148 H   0  0  0  0  0  0  0  0  0  0  0  0
    6.1529    7.2143    0.5369 H   0  0  0  0  0  0  0  0  0  0  0  0
    2.9494   -5.1426   -0.1142 H   0  0  0  0  0  0  0  0  0  0  0  0
    2.9251   -6.9704   -1.1478 H   0  0  0  0  0  0  0  0  0  0  0  0
    0.7923  -10.4505   -0.4898 H   0  0  0  0  0  0  0  0  0  0  0  0
   -1.1820   -6.6421    0.1427 H   0  0  0  0  0  0  0  0  0  0  0  0
    4.7493   -4.3912   -0.4857 H   0  0  0  0  0  0  0  0  0  0  0  0
    4.8577   -3.6606    1.1208 H   0  0  0  0  0  0  0  0  0  0  0  0
    5.9942   -2.5615   -1.5196 H   0  0  0  0  0  0  0  0  0  0  0  0
    6.9228   -3.2261   -0.1684 H   0  0  0  0  0  0  0  0  0  0  0  0
    6.8933   -0.6427   -0.3180 H   0  0  0  0  0  0  0  0  0  0  0  0
    6.3971   -1.2866    1.2518 H   0  0  0  0  0  0  0  0  0  0  0  0
  1  2  1  0
  1 32  1  0
  1 33  1  0
  1 34  1  0
  2  3  2  0
  2 16  1  0
  3  4  1  0
  3 14  1  0
  4  5  2  0
  4  6  1  0
  6  7  1  0
  6 35  1  0
  7  8  2  0
  7 12  1  0
  8  9  1  0
  8 36  1  0
  9 10  2  0
  9 37  1  0
 10 11  1  0
 10 38  1  0
 11 12  2  0
 11 39  1  0
 12 13  1  0
 14 15  1  0
 15 16  2  0
 15 31  1  0
 16 17  1  0
 17 18  2  0
 17 29  1  0
 18 19  1  0
 19 20  1  0
 19 40  1  0
 20 21  2  0
 20 22  1  0
 22 23  2  0
 22 28  1  0
 23 24  1  0
 23 41  1  0
 24 25  2  0
 25 26  1  0
 25 42  1  0
 26 27  1  0
 26 28  2  0
 28 43  1  0
 29 30  1  0
 29 44  1  0
 29 45  1  0
 30 31  1  0
 30 46  1  0
 30 47  1  0
 31 48  1  0
 31 49  1  0
M  END

