
     RDKit          3D

 50 51  0  0  0  0  0  0  0  0999 V2000
    2.0758   -0.8219    2.2349 C   0  0  0  0  0  0  0  0  0  0  0  0
    3.4785   -1.1716    1.7762 C   0  0  0  0  0  0  0  0  0  0  0  0
    3.6512   -0.6735    0.4579 O   0  0  0  0  0  0  0  0  0  0  0  0
    4.8179   -0.8982   -0.1996 C   0  0  0  0  0  0  0  0  0  0  0  0
    5.9274   -1.5586    0.3490 C   0  0  0  0  0  0  0  0  0  0  0  0
    7.0803   -1.7699   -0.4135 C   0  0  0  0  0  0  0  0  0  0  0  0
    7.1586   -1.3299   -1.7394 C   0  0  0  0  0  0  0  0  0  0  0  0
    8.4103   -1.5512   -2.5641 C   0  0  0  0  0  0  0  0  0  0  0  0
    8.7079   -2.9798   -2.7568 N   0  0  0  0  0  0  0  0  0  0  0  0
    7.7497   -3.7123   -3.5858 C   0  0  0  0  0  0  0  0  0  0  0  0
   10.3487   -3.3145   -3.0816 S   0  0  1  0  0  0  0  0  0  0  0  0
   10.4104   -4.7165   -3.5081 O   0  0  0  0  0  0  0  0  0  0  0  0
   10.9164   -2.2677   -3.9426 O   0  0  0  0  0  0  0  0  0  0  0  0
   11.1139   -3.1502   -1.4551 C   0  0  0  0  0  0  0  0  0  0  0  0
   12.0596   -2.1276   -1.3222 C   0  0  0  0  0  0  0  0  0  0  0  0
   12.7498   -1.9347   -0.1189 C   0  0  0  0  0  0  0  0  0  0  0  0
   13.7815   -0.8434    0.0293 C   0  0  0  0  0  0  0  0  0  0  0  0
   12.4552   -2.8057    0.9400 C   0  0  0  0  0  0  0  0  0  0  0  0
   11.5180   -3.8298    0.7964 C   0  0  0  0  0  0  0  0  0  0  0  0
   10.8202   -4.0436   -0.4032 C   0  0  0  0  0  0  0  0  0  0  0  0
    9.8321   -5.1754   -0.5186 C   0  0  0  0  0  0  0  0  0  0  0  0
    6.0507   -0.6616   -2.2801 C   0  0  0  0  0  0  0  0  0  0  0  0
    4.8905   -0.4361   -1.5369 C   0  0  0  0  0  0  0  0  0  0  0  0
    3.8275    0.1644   -2.1482 O   0  0  0  0  0  0  0  0  0  0  0  0
    3.4280    1.4385   -1.6658 C   0  0  0  0  0  0  0  0  0  0  0  0
    1.9013   -1.2097    3.2504 H   0  0  0  0  0  0  0  0  0  0  0  0
    1.3259   -1.2613    1.5597 H   0  0  0  0  0  0  0  0  0  0  0  0
    1.9285    0.2690    2.2509 H   0  0  0  0  0  0  0  0  0  0  0  0
    3.6313   -2.2672    1.7852 H   0  0  0  0  0  0  0  0  0  0  0  0
    4.2340   -0.7273    2.4516 H   0  0  0  0  0  0  0  0  0  0  0  0
    5.8981   -1.9193    1.3772 H   0  0  0  0  0  0  0  0  0  0  0  0
    7.9305   -2.2883    0.0366 H   0  0  0  0  0  0  0  0  0  0  0  0
    9.2714   -1.0971   -2.0499 H   0  0  0  0  0  0  0  0  0  0  0  0
    8.3183   -1.0368   -3.5386 H   0  0  0  0  0  0  0  0  0  0  0  0
    6.7629   -3.6557   -3.1038 H   0  0  0  0  0  0  0  0  0  0  0  0
    8.0539   -4.7629   -3.6579 H   0  0  0  0  0  0  0  0  0  0  0  0
    7.6662   -3.2944   -4.6075 H   0  0  0  0  0  0  0  0  0  0  0  0
   12.2503   -1.4840   -2.1829 H   0  0  0  0  0  0  0  0  0  0  0  0
   13.7807   -0.1667   -0.8374 H   0  0  0  0  0  0  0  0  0  0  0  0
   14.7966   -1.2658    0.1215 H   0  0  0  0  0  0  0  0  0  0  0  0
   13.6006   -0.2394    0.9333 H   0  0  0  0  0  0  0  0  0  0  0  0
   12.9712   -2.6852    1.8972 H   0  0  0  0  0  0  0  0  0  0  0  0
   11.3199   -4.4955    1.6411 H   0  0  0  0  0  0  0  0  0  0  0  0
    9.7659   -5.7293    0.4286 H   0  0  0  0  0  0  0  0  0  0  0  0
   10.1235   -5.8686   -1.3211 H   0  0  0  0  0  0  0  0  0  0  0  0
    8.8300   -4.7996   -0.7779 H   0  0  0  0  0  0  0  0  0  0  0  0
    6.0606   -0.3020   -3.3121 H   0  0  0  0  0  0  0  0  0  0  0  0
    2.6075    1.7769   -2.3141 H   0  0  0  0  0  0  0  0  0  0  0  0
    4.2569    2.1673   -1.7318 H   0  0  0  0  0  0  0  0  0  0  0  0
    3.0707    1.3908   -0.6253 H   0  0  0  0  0  0  0  0  0  0  0  0
  1  2  1  0
  1 26  1  0
  1 27  1  0
  1 28  1  0
  2  3  1  0
  2 29  1  0
  2 30  1  0
  3  4  1  0
  4  5  2  0
  4 23  1  0
  5  6  1  0
  5 31  1  0
  6  7  2  0
  6 32  1  0
  7  8  1  0
  7 22  1  0
  8  9  1  0
  8 33  1  0
  8 34  1  0
  9 10  1  0
 11  9  1  1
 10 35  1  0
 10 36  1  0
 10 37  1  0
 11 12  2  0
 11 13  2  0
 11 14  1  0
 14 15  2  0
 14 20  1  0
 15 16  1  0
 15 38  1  0
 16 17  1  0
 16 18  2  0
 17 39  1  0
 17 40  1  0
 17 41  1  0
 18 19  1  0
 18 42  1  0
 19 20  2  0
 19 43  1  0
 20 21  1  0
 21 44  1  0
 21 45  1  0
 21 46  1  0
 22 23  2  0
 22 47  1  0
 23 24  1  0
 24 25  1  0
 25 48  1  0
 25 49  1  0
 25 50  1  0
M  END

