
     RDKit          3D

 31 34  0  0  0  0  0  0  0  0999 V2000
    0.9262    0.0584   -0.0476 C   0  0  0  0  0  0  0  0  0  0  0  0
    2.4526    0.1041   -0.1192 C   0  0  1  0  0  0  0  0  0  0  0  0
    3.0014   -1.0240   -1.0084 C   0  0  0  0  0  0  0  0  0  0  0  0
    4.4381   -0.8925   -1.1842 N   0  0  0  0  0  0  0  0  0  0  0  0
    5.0814    0.3272   -1.2808 C   0  0  0  0  0  0  0  0  0  0  0  0
    6.3570    0.2247   -1.5826 N   0  0  0  0  0  0  0  0  0  0  0  0
    6.5860   -1.1291   -1.7085 C   0  0  0  0  0  0  0  0  0  0  0  0
    7.7685   -1.8217   -2.0177 C   0  0  0  0  0  0  0  0  0  0  0  0
    7.7167   -3.2114   -2.0910 C   0  0  0  0  0  0  0  0  0  0  0  0
    6.5145   -3.9166   -1.8618 C   0  0  0  0  0  0  0  0  0  0  0  0
    5.3275   -3.2537   -1.5498 C   0  0  0  0  0  0  0  0  0  0  0  0
    5.3841   -1.8570   -1.4731 C   0  0  0  0  0  0  0  0  0  0  0  0
    4.3120    1.5498   -1.0714 C   0  0  0  0  0  0  0  0  0  0  0  0
    4.8341    2.8144   -1.3734 C   0  0  0  0  0  0  0  0  0  0  0  0
    4.0363    3.9355   -1.1588 C   0  0  0  0  0  0  0  0  0  0  0  0
    2.7452    3.7453   -0.6544 C   0  0  0  0  0  0  0  0  0  0  0  0
    2.2438    2.5444   -0.3537 N   0  0  0  0  0  0  0  0  0  0  0  0
    2.9997    1.4635   -0.5489 C   0  0  0  0  0  0  0  0  0  0  0  0
    0.5834   -0.9150    0.3376 H   0  0  0  0  0  0  0  0  0  0  0  0
    0.4786    0.2149   -1.0424 H   0  0  0  0  0  0  0  0  0  0  0  0
    0.5486    0.8533    0.6077 H   0  0  0  0  0  0  0  0  0  0  0  0
    2.8522   -0.0713    0.8995 H   0  0  0  0  0  0  0  0  0  0  0  0
    2.5008   -1.0067   -1.9954 H   0  0  0  0  0  0  0  0  0  0  0  0
    2.7877   -2.0008   -0.5496 H   0  0  0  0  0  0  0  0  0  0  0  0
    8.6941   -1.2706   -2.1957 H   0  0  0  0  0  0  0  0  0  0  0  0
    8.6228   -3.7728   -2.3322 H   0  0  0  0  0  0  0  0  0  0  0  0
    6.5140   -5.0073   -1.9313 H   0  0  0  0  0  0  0  0  0  0  0  0
    4.4015   -3.8066   -1.3770 H   0  0  0  0  0  0  0  0  0  0  0  0
    5.8491    2.8873   -1.7700 H   0  0  0  0  0  0  0  0  0  0  0  0
    4.4006    4.9409   -1.3806 H   0  0  0  0  0  0  0  0  0  0  0  0
    2.0862    4.6047   -0.4833 H   0  0  0  0  0  0  0  0  0  0  0  0
  1  2  1  0
  1 19  1  0
  1 20  1  0
  1 21  1  0
  2  3  1  0
  2 18  1  0
  2 22  1  1
  3  4  1  0
  3 23  1  0
  3 24  1  0
  4  5  1  0
  4 12  1  0
  5  6  2  0
  5 13  1  0
  6  7  1  0
  7  8  1  0
  7 12  2  0
  8  9  2  0
  8 25  1  0
  9 10  1  0
  9 26  1  0
 10 11  2  0
 10 27  1  0
 11 12  1  0
 11 28  1  0
 13 14  1  0
 13 18  2  0
 14 15  2  0
 14 29  1  0
 15 16  1  0
 15 30  1  0
 16 17  2  0
 16 31  1  0
 17 18  1  0
M  END

