
     RDKit          3D

 51 53  0  0  0  0  0  0  0  0999 V2000
    4.5567    1.6397    0.7840 C   0  0  0  0  0  0  0  0  0  0  0  0
    4.6684    0.4141   -0.1367 C   0  0  0  0  0  0  0  0  0  0  0  0
    4.7466   -0.8964    0.6154 C   0  0  0  0  0  0  0  0  0  0  0  0
    3.5924   -1.6182    0.9511 C   0  0  0  0  0  0  0  0  0  0  0  0
    3.6388   -2.8120    1.6749 C   0  0  0  0  0  0  0  0  0  0  0  0
    4.8784   -3.3220    2.0983 C   0  0  0  0  0  0  0  0  0  0  0  0
    5.0699   -4.5126    2.8266 N   0  0  0  0  0  0  0  0  0  0  0  0
    4.2342   -5.3965    3.4568 C   0  0  0  0  0  0  0  0  0  0  0  0
    2.5632   -5.4572    3.2433 S   0  0  0  0  0  0  0  0  0  0  0  0
    4.9301   -6.3117    4.3639 C   0  0  0  0  0  0  0  0  0  0  0  0
    6.0484   -6.0108    5.2262 C   0  0  0  0  0  0  0  0  0  0  0  0
    6.6865   -6.8799    5.8395 O   0  0  0  0  0  0  0  0  0  0  0  0
    6.4516   -4.5707    5.4854 C   0  0  0  0  0  0  0  0  0  0  0  0
    5.5205   -3.5379    5.6896 C   0  0  0  0  0  0  0  0  0  0  0  0
    5.9437   -2.2579    6.0621 C   0  0  0  0  0  0  0  0  0  0  0  0
    7.3014   -1.9822    6.2270 C   0  0  0  0  0  0  0  0  0  0  0  0
    8.2153   -3.0189    6.0264 C   0  0  0  0  0  0  0  0  0  0  0  0
    9.6586   -2.7417    6.2016 N   0  0  0  0  0  0  0  0  0  0  0  0
    9.9782   -1.6157    6.5489 O   0  0  0  0  0  0  0  0  0  0  0  0
   10.4400   -3.6531    5.9848 O   0  0  0  0  0  0  0  0  0  0  0  0
    7.8147   -4.3066    5.6783 C   0  0  0  0  0  0  0  0  0  0  0  0
    4.4384   -7.6545    4.4349 N   0  0  0  0  0  0  0  0  0  0  0  0
    4.3749   -8.3140    5.6224 C   0  0  0  0  0  0  0  0  0  0  0  0
    3.9119   -9.6185    5.6880 C   0  0  0  0  0  0  0  0  0  0  0  0
    3.4828  -10.2687    4.5324 C   0  0  0  0  0  0  0  0  0  0  0  0
    3.5338   -9.5901    3.3037 C   0  0  0  0  0  0  0  0  0  0  0  0
    3.0715  -10.2321    2.0215 C   0  0  0  0  0  0  0  0  0  0  0  0
    4.0285   -8.2921    3.3009 C   0  0  0  0  0  0  0  0  0  0  0  0
    6.0469   -2.6056    1.7660 C   0  0  0  0  0  0  0  0  0  0  0  0
    5.9788   -1.4211    1.0395 C   0  0  0  0  0  0  0  0  0  0  0  0
    4.5028    2.5720    0.1987 H   0  0  0  0  0  0  0  0  0  0  0  0
    5.4261    1.7119    1.4572 H   0  0  0  0  0  0  0  0  0  0  0  0
    3.6548    1.5817    1.4143 H   0  0  0  0  0  0  0  0  0  0  0  0
    5.5607    0.5219   -0.7766 H   0  0  0  0  0  0  0  0  0  0  0  0
    3.8008    0.3920   -0.8176 H   0  0  0  0  0  0  0  0  0  0  0  0
    2.6156   -1.2446    0.6288 H   0  0  0  0  0  0  0  0  0  0  0  0
    2.7290   -3.3611    1.9047 H   0  0  0  0  0  0  0  0  0  0  0  0
    6.0531   -4.7108    2.9807 H   0  0  0  0  0  0  0  0  0  0  0  0
    4.4533   -3.7381    5.5702 H   0  0  0  0  0  0  0  0  0  0  0  0
    5.2065   -1.4686    6.2253 H   0  0  0  0  0  0  0  0  0  0  0  0
    7.6645   -0.9946    6.5094 H   0  0  0  0  0  0  0  0  0  0  0  0
    8.5518   -5.1019    5.5742 H   0  0  0  0  0  0  0  0  0  0  0  0
    4.7077   -7.7661    6.4980 H   0  0  0  0  0  0  0  0  0  0  0  0
    3.8795  -10.1116    6.6608 H   0  0  0  0  0  0  0  0  0  0  0  0
    3.1126  -11.2958    4.5789 H   0  0  0  0  0  0  0  0  0  0  0  0
    3.4840  -11.2473    1.9141 H   0  0  0  0  0  0  0  0  0  0  0  0
    3.3696   -9.6443    1.1418 H   0  0  0  0  0  0  0  0  0  0  0  0
    1.9723  -10.3198    2.0067 H   0  0  0  0  0  0  0  0  0  0  0  0
    4.1236   -7.7203    2.3808 H   0  0  0  0  0  0  0  0  0  0  0  0
    7.0217   -2.9867    2.0858 H   0  0  0  0  0  0  0  0  0  0  0  0
    6.9057   -0.8936    0.7959 H   0  0  0  0  0  0  0  0  0  0  0  0
  1  2  1  0
  1 31  1  0
  1 32  1  0
  1 33  1  0
  2  3  1  0
  2 34  1  0
  2 35  1  0
  3  4  2  0
  3 30  1  0
  4  5  1  0
  4 36  1  0
  5  6  2  0
  5 37  1  0
  6  7  1  0
  6 29  1  0
  7  8  1  0
  7 38  1  0
  8  9  2  0
  8 10  1  0
 10 11  2  0
 10 22  1  0
 11 12  1  0
 11 13  1  0
 13 14  2  0
 13 21  1  0
 14 15  1  0
 14 39  1  0
 15 16  2  0
 15 40  1  0
 16 17  1  0
 16 41  1  0
 17 18  1  0
 17 21  2  0
 18 19  2  0
 18 20  1  0
 21 42  1  0
 22 23  2  0
 22 28  1  0
 23 24  1  0
 23 43  1  0
 24 25  2  0
 24 44  1  0
 25 26  1  0
 25 45  1  0
 26 27  1  0
 26 28  2  0
 27 46  1  0
 27 47  1  0
 27 48  1  0
 28 49  1  0
 29 30  2  0
 29 50  1  0
 30 51  1  0
M  CHG  4  12  -1  18   1  20  -1  22   1
M  END

