
     RDKit          3D

 62 65  0  0  0  0  0  0  0  0999 V2000
    4.9723    4.8375    2.5587 C   0  0  0  0  0  0  0  0  0  0  0  0
    4.1797    3.7076    2.2881 O   0  0  0  0  0  0  0  0  0  0  0  0
    4.7821    2.7635    1.4081 C   0  0  0  0  0  0  0  0  0  0  0  0
    5.6379    1.7170    2.1264 C   0  0  0  0  0  0  0  0  0  0  0  0
    4.8820    0.6717    2.8123 N   0  0  0  0  0  0  0  0  0  0  0  0
    3.9332    1.0859    3.8226 C   0  0  0  0  0  0  0  0  0  0  0  0
    2.5152    1.2956    3.2536 C   0  0  0  0  0  0  0  0  0  0  0  0
    2.1329    0.6990    2.2726 O   0  0  0  0  0  0  0  0  0  0  0  0
    1.6888    2.1574    3.9693 N   0  0  0  0  0  0  0  0  0  0  0  0
    0.4052    2.3351    3.5601 N   0  0  0  0  0  0  0  0  0  0  0  0
   -0.1298    3.3262    4.1863 C   0  0  0  0  0  0  0  0  0  0  0  0
   -1.5199    3.7256    3.9461 C   0  0  0  0  0  0  0  0  0  0  0  0
   -2.3081    3.0307    3.0022 C   0  0  0  0  0  0  0  0  0  0  0  0
   -3.6247    3.4049    2.7663 C   0  0  0  0  0  0  0  0  0  0  0  0
   -4.1614    4.4828    3.4787 C   0  0  0  0  0  0  0  0  0  0  0  0
   -5.5605    4.8834    3.2323 N   0  0  0  0  0  0  0  0  0  0  0  0
   -6.1933    4.2440    2.4073 O   0  0  0  0  0  0  0  0  0  0  0  0
   -5.9977    5.8292    3.8693 O   0  0  0  0  0  0  0  0  0  0  0  0
   -3.4106    5.1902    4.4163 C   0  0  0  0  0  0  0  0  0  0  0  0
   -2.0903    4.8069    4.6458 C   0  0  0  0  0  0  0  0  0  0  0  0
    0.8220    4.0047    5.1511 C   0  0  0  0  0  0  0  0  0  0  0  0
    2.0949    3.1199    5.0320 C   0  0  1  0  0  0  0  0  0  0  0  0
    2.9475    3.7133    4.6732 H   0  0  0  0  0  0  0  0  0  0  0  0
    2.5068    2.4383    6.3017 C   0  0  0  0  0  0  0  0  0  0  0  0
    1.9790    1.4181    7.0473 C   0  0  0  0  0  0  0  0  0  0  0  0
    2.8532    1.2489    8.1724 C   0  0  0  0  0  0  0  0  0  0  0  0
    3.8430    2.1775    8.0248 C   0  0  0  0  0  0  0  0  0  0  0  0
    3.6427    2.9015    6.8931 O   0  0  0  0  0  0  0  0  0  0  0  0
    5.0397   -0.6369    2.3812 C   0  0  0  0  0  0  0  0  0  0  0  0
    5.8234   -0.9105    1.4849 O   0  0  0  0  0  0  0  0  0  0  0  0
    4.2550   -1.7270    3.1207 C   0  0  1  0  0  0  0  0  0  0  0  0
    4.1639   -3.0368    2.2959 C   0  0  0  0  0  0  0  0  0  0  0  0
    4.4285   -4.1730    3.2955 C   0  0  0  0  0  0  0  0  0  0  0  0
    5.4738   -3.5658    4.2380 C   0  0  0  0  0  0  0  0  0  0  0  0
    4.9612   -2.1327    4.4642 C   0  0  0  0  0  0  0  0  0  0  0  0
    4.4073    5.4916    3.2401 H   0  0  0  0  0  0  0  0  0  0  0  0
    5.1975    5.4081    1.6362 H   0  0  0  0  0  0  0  0  0  0  0  0
    5.9346    4.5834    3.0454 H   0  0  0  0  0  0  0  0  0  0  0  0
    5.4101    3.2938    0.6668 H   0  0  0  0  0  0  0  0  0  0  0  0
    3.9662    2.2640    0.8643 H   0  0  0  0  0  0  0  0  0  0  0  0
    6.3106    2.2230    2.8450 H   0  0  0  0  0  0  0  0  0  0  0  0
    6.2679    1.1990    1.3916 H   0  0  0  0  0  0  0  0  0  0  0  0
    4.3120    1.9983    4.2995 H   0  0  0  0  0  0  0  0  0  0  0  0
    3.8543    0.3368    4.6251 H   0  0  0  0  0  0  0  0  0  0  0  0
   -1.8621    2.1953    2.4606 H   0  0  0  0  0  0  0  0  0  0  0  0
   -4.2486    2.8819    2.0420 H   0  0  0  0  0  0  0  0  0  0  0  0
   -3.8687    6.0235    4.9481 H   0  0  0  0  0  0  0  0  0  0  0  0
   -1.5007    5.3594    5.3800 H   0  0  0  0  0  0  0  0  0  0  0  0
    0.4321    4.0209    6.1802 H   0  0  0  0  0  0  0  0  0  0  0  0
    1.0139    5.0485    4.8551 H   0  0  0  0  0  0  0  0  0  0  0  0
    1.0793    0.8502    6.8189 H   0  0  0  0  0  0  0  0  0  0  0  0
    2.7555    0.5280    8.9814 H   0  0  0  0  0  0  0  0  0  0  0  0
    4.7213    2.4360    8.6103 H   0  0  0  0  0  0  0  0  0  0  0  0
    3.2439   -1.3554    3.3238 H   0  0  0  0  0  0  0  0  0  0  0  0
    4.9515   -3.0180    1.5285 H   0  0  0  0  0  0  0  0  0  0  0  0
    3.1973   -3.1280    1.7777 H   0  0  0  0  0  0  0  0  0  0  0  0
    4.7665   -5.1018    2.8088 H   0  0  0  0  0  0  0  0  0  0  0  0
    3.5115   -4.4180    3.8617 H   0  0  0  0  0  0  0  0  0  0  0  0
    6.4539   -3.5367    3.7320 H   0  0  0  0  0  0  0  0  0  0  0  0
    5.6050   -4.1252    5.1782 H   0  0  0  0  0  0  0  0  0  0  0  0
    5.7663   -1.4377    4.7512 H   0  0  0  0  0  0  0  0  0  0  0  0
    4.2245   -2.1244    5.2851 H   0  0  0  0  0  0  0  0  0  0  0  0
  1  2  1  0
  1 36  1  0
  1 37  1  0
  1 38  1  0
  2  3  1  0
  3  4  1  0
  3 39  1  0
  3 40  1  0
  4  5  1  0
  4 41  1  0
  4 42  1  0
  5  6  1  0
  5 29  1  0
  6  7  1  0
  6 43  1  0
  6 44  1  0
  7  8  2  0
  7  9  1  0
  9 10  1  0
  9 22  1  0
 10 11  2  0
 11 12  1  0
 11 21  1  0
 12 13  2  0
 12 20  1  0
 13 14  1  0
 13 45  1  0
 14 15  2  0
 14 46  1  0
 15 16  1  0
 15 19  1  0
 16 17  2  0
 16 18  1  0
 19 20  2  0
 19 47  1  0
 20 48  1  0
 21 22  1  0
 21 49  1  0
 21 50  1  0
 22 23  1  6
 22 24  1  0
 24 25  2  0
 24 28  1  0
 25 26  1  0
 25 51  1  0
 26 27  2  0
 26 52  1  0
 27 28  1  0
 27 53  1  0
 29 30  2  0
 29 31  1  0
 31 32  1  0
 31 35  1  0
 31 54  1  1
 32 33  1  0
 32 55  1  0
 32 56  1  0
 33 34  1  0
 33 57  1  0
 33 58  1  0
 34 35  1  0
 34 59  1  0
 34 60  1  0
 35 61  1  0
 35 62  1  0
M  CHG  2  16   1  18  -1
M  END

