
     RDKit          3D

 40 41  0  0  0  0  0  0  0  0999 V2000
    1.6303    2.0954    1.5974 C   0  0  0  0  0  0  0  0  0  0  0  0
    2.8676    1.4881    0.9341 C   0  0  0  0  0  0  0  0  0  0  0  0
    3.0727    0.0114    1.2901 C   0  0  1  0  0  0  0  0  0  0  0  0
    3.1382   -0.0730    2.3917 H   0  0  0  0  0  0  0  0  0  0  0  0
    1.9700   -0.7823    0.8324 O   0  0  0  0  0  0  0  0  0  0  0  0
    4.3409   -0.6151    0.7333 C   0  0  0  0  0  0  0  0  0  0  0  0
    5.1001   -0.0465   -0.2985 C   0  0  0  0  0  0  0  0  0  0  0  0
    6.2550   -0.6685   -0.7835 C   0  0  0  0  0  0  0  0  0  0  0  0
    6.6779   -1.8795   -0.2317 C   0  0  0  0  0  0  0  0  0  0  0  0
    5.9425   -2.4627    0.8025 C   0  0  0  0  0  0  0  0  0  0  0  0
    4.7834   -1.8397    1.2765 C   0  0  0  0  0  0  0  0  0  0  0  0
    4.0951   -2.3982    2.3266 O   0  0  0  0  0  0  0  0  0  0  0  0
    3.2335   -3.4824    2.0061 C   0  0  0  0  0  0  0  0  0  0  0  0
    2.5603   -3.9850    3.2601 C   0  0  0  0  0  0  0  0  0  0  0  0
    2.8650   -3.4979    4.5350 C   0  0  0  0  0  0  0  0  0  0  0  0
    2.1922   -4.0032    5.6529 C   0  0  0  0  0  0  0  0  0  0  0  0
    1.2286   -4.9983    5.5118 C   0  0  0  0  0  0  0  0  0  0  0  0
    0.9022   -5.5109    4.2443 C   0  0  0  0  0  0  0  0  0  0  0  0
   -0.0693   -6.4556    4.1983 O   0  0  0  0  0  0  0  0  0  0  0  0
   -0.1272   -7.4065    3.1462 C   0  0  0  0  0  0  0  0  0  0  0  0
    1.5796   -4.9755    3.1371 C   0  0  0  0  0  0  0  0  0  0  0  0
    1.2858   -5.4092    1.8863 F   0  0  0  0  0  0  0  0  0  0  0  0
    1.5158    3.1580    1.3332 H   0  0  0  0  0  0  0  0  0  0  0  0
    1.6876    2.0310    2.6975 H   0  0  0  0  0  0  0  0  0  0  0  0
    0.7114    1.5797    1.2739 H   0  0  0  0  0  0  0  0  0  0  0  0
    3.7659    2.0545    1.2337 H   0  0  0  0  0  0  0  0  0  0  0  0
    2.7760    1.5814   -0.1608 H   0  0  0  0  0  0  0  0  0  0  0  0
    1.2386   -0.6645    1.4519 H   0  0  0  0  0  0  0  0  0  0  0  0
    4.7869    0.9010   -0.7397 H   0  0  0  0  0  0  0  0  0  0  0  0
    6.8248   -0.2025   -1.5911 H   0  0  0  0  0  0  0  0  0  0  0  0
    7.5844   -2.3677   -0.5986 H   0  0  0  0  0  0  0  0  0  0  0  0
    6.2640   -3.3987    1.2653 H   0  0  0  0  0  0  0  0  0  0  0  0
    3.8092   -4.3037    1.5361 H   0  0  0  0  0  0  0  0  0  0  0  0
    2.4803   -3.1494    1.2720 H   0  0  0  0  0  0  0  0  0  0  0  0
    3.6261   -2.7241    4.6327 H   0  0  0  0  0  0  0  0  0  0  0  0
    2.4293   -3.6213    6.6489 H   0  0  0  0  0  0  0  0  0  0  0  0
    0.6988   -5.4124    6.3720 H   0  0  0  0  0  0  0  0  0  0  0  0
   -0.8198   -8.1899    3.4846 H   0  0  0  0  0  0  0  0  0  0  0  0
    0.8605   -7.8596    2.9545 H   0  0  0  0  0  0  0  0  0  0  0  0
   -0.5050   -6.9683    2.2100 H   0  0  0  0  0  0  0  0  0  0  0  0
  1  2  1  0
  1 23  1  0
  1 24  1  0
  1 25  1  0
  2  3  1  0
  2 26  1  0
  2 27  1  0
  3  4  1  1
  3  5  1  0
  3  6  1  0
  5 28  1  0
  6  7  2  0
  6 11  1  0
  7  8  1  0
  7 29  1  0
  8  9  2  0
  8 30  1  0
  9 10  1  0
  9 31  1  0
 10 11  2  0
 10 32  1  0
 11 12  1  0
 12 13  1  0
 13 14  1  0
 13 33  1  0
 13 34  1  0
 14 15  2  0
 14 21  1  0
 15 16  1  0
 15 35  1  0
 16 17  2  0
 16 36  1  0
 17 18  1  0
 17 37  1  0
 18 19  1  0
 18 21  2  0
 19 20  1  0
 20 38  1  0
 20 39  1  0
 20 40  1  0
 21 22  1  0
M  END

