
     RDKit          3D

 33 34  0  0  0  0  0  0  0  0999 V2000
    1.1961   -0.3791   -0.3237 C   0  0  0  0  0  0  0  0  0  0  0  0
    2.5211   -0.0671    0.0270 O   0  0  0  0  0  0  0  0  0  0  0  0
    2.9226   -0.4530    1.3313 C   0  0  1  0  0  0  0  0  0  0  0  0
    3.1893   -1.9631    1.4504 C   0  0  0  0  0  0  0  0  0  0  0  0
    4.4027   -2.3802    0.6106 C   0  0  0  0  0  0  0  0  0  0  0  0
    5.6270   -1.5243    0.9542 C   0  0  0  0  0  0  0  0  0  0  0  0
    5.3200   -0.0994    0.8325 N   0  0  0  0  0  0  0  0  0  0  0  0
    5.9221    0.6306   -0.1659 C   0  0  0  0  0  0  0  0  0  0  0  0
    6.7473    0.1330   -0.9191 O   0  0  0  0  0  0  0  0  0  0  0  0
    5.5274    2.0972   -0.3147 C   0  0  1  0  0  0  0  0  0  0  0  0
    6.4251    2.9309   -1.2676 C   0  0  0  0  0  0  0  0  0  0  0  0
    5.1534    3.5019   -1.8939 C   0  0  2  0  0  0  0  0  0  0  0  0
    5.1128    3.5880   -3.2464 F   0  0  0  0  0  0  0  0  0  0  0  0
    4.8457    4.7424   -1.4102 F   0  0  0  0  0  0  0  0  0  0  0  0
    4.3045    2.4063   -1.2448 C   0  0  0  0  0  0  0  0  0  0  0  0
    4.1991    0.3393    1.6493 C   0  0  0  0  0  0  0  0  0  0  0  0
    1.0078    0.0530   -1.3172 H   0  0  0  0  0  0  0  0  0  0  0  0
    0.4690    0.0541    0.3923 H   0  0  0  0  0  0  0  0  0  0  0  0
    1.0116   -1.4686   -0.3817 H   0  0  0  0  0  0  0  0  0  0  0  0
    2.1414   -0.1552    2.0614 H   0  0  0  0  0  0  0  0  0  0  0  0
    2.2927   -2.5360    1.1637 H   0  0  0  0  0  0  0  0  0  0  0  0
    3.3703   -2.1929    2.5160 H   0  0  0  0  0  0  0  0  0  0  0  0
    4.1717   -2.2565   -0.4598 H   0  0  0  0  0  0  0  0  0  0  0  0
    4.6368   -3.4452    0.7731 H   0  0  0  0  0  0  0  0  0  0  0  0
    6.4698   -1.7381    0.2865 H   0  0  0  0  0  0  0  0  0  0  0  0
    5.9468   -1.7268    1.9946 H   0  0  0  0  0  0  0  0  0  0  0  0
    5.4151    2.5883    0.6616 H   0  0  0  0  0  0  0  0  0  0  0  0
    6.9602    2.2716   -1.9637 H   0  0  0  0  0  0  0  0  0  0  0  0
    7.1108    3.6633   -0.8195 H   0  0  0  0  0  0  0  0  0  0  0  0
    4.1042    1.5857   -1.9463 H   0  0  0  0  0  0  0  0  0  0  0  0
    3.3675    2.7309   -0.7731 H   0  0  0  0  0  0  0  0  0  0  0  0
    4.0021    1.4053    1.4953 H   0  0  0  0  0  0  0  0  0  0  0  0
    4.4444    0.1938    2.7183 H   0  0  0  0  0  0  0  0  0  0  0  0
  1  2  1  0
  1 17  1  0
  1 18  1  0
  1 19  1  0
  2  3  1  0
  3  4  1  0
  3 16  1  0
  3 20  1  1
  4  5  1  0
  4 21  1  0
  4 22  1  0
  5  6  1  0
  5 23  1  0
  5 24  1  0
  6  7  1  0
  6 25  1  0
  6 26  1  0
  7  8  1  0
  7 16  1  0
  8  9  2  0
  8 10  1  0
 10 11  1  0
 10 15  1  0
 10 27  1  1
 11 12  1  0
 11 28  1  0
 11 29  1  0
 12 13  1  6
 12 14  1  0
 12 15  1  0
 15 30  1  0
 15 31  1  0
 16 32  1  0
 16 33  1  0
M  END

