
     RDKit          3D

 29 30  0  0  0  0  0  0  0  0999 V2000
    1.8046   -0.0766   -0.9464 C   0  0  0  0  0  0  0  0  0  0  0  0
    2.2263    0.1712    0.4951 C   0  0  0  0  0  0  0  0  0  0  0  0
    2.9332    1.4020    0.6440 O   0  0  0  0  0  0  0  0  0  0  0  0
    4.2656    1.3877    0.3780 C   0  0  0  0  0  0  0  0  0  0  0  0
    4.8337    0.3601    0.0314 O   0  0  0  0  0  0  0  0  0  0  0  0
    4.7715    2.6523    0.5588 N   0  0  0  0  0  0  0  0  0  0  0  0
    6.0635    2.9073    0.4542 C   0  0  0  0  0  0  0  0  0  0  0  0
    6.4378    4.3087    0.6425 C   0  0  0  0  0  0  0  0  0  0  0  0
    7.7222    4.7506    0.5837 C   0  0  0  0  0  0  0  0  0  0  0  0
    8.7949    3.8282    0.3271 C   0  0  0  0  0  0  0  0  0  0  0  0
   10.1135    4.2279    0.2671 C   0  0  0  0  0  0  0  0  0  0  0  0
   11.1011    3.3244    0.0344 N   0  0  0  0  0  0  0  0  0  0  0  0
   12.3975    3.7781   -0.0904 O   0  0  0  0  0  0  0  0  0  0  0  0
   10.8437    1.9909   -0.1968 C   0  0  0  0  0  0  0  0  0  0  0  0
    9.5622    1.5352   -0.1487 C   0  0  0  0  0  0  0  0  0  0  0  0
    8.4557    2.4211    0.1259 C   0  0  0  0  0  0  0  0  0  0  0  0
    7.1448    1.9905    0.1874 C   0  0  0  0  0  0  0  0  0  0  0  0
    1.1902   -0.9897   -1.0119 H   0  0  0  0  0  0  0  0  0  0  0  0
    2.6881   -0.2097   -1.5880 H   0  0  0  0  0  0  0  0  0  0  0  0
    1.2110    0.7678   -1.3311 H   0  0  0  0  0  0  0  0  0  0  0  0
    2.8505   -0.6593    0.8604 H   0  0  0  0  0  0  0  0  0  0  0  0
    1.3453    0.2693    1.1485 H   0  0  0  0  0  0  0  0  0  0  0  0
    5.6101    4.9933    0.8389 H   0  0  0  0  0  0  0  0  0  0  0  0
    7.9561    5.8086    0.7321 H   0  0  0  0  0  0  0  0  0  0  0  0
   10.4417    5.2605    0.3948 H   0  0  0  0  0  0  0  0  0  0  0  0
   12.7948    3.6944    0.7943 H   0  0  0  0  0  0  0  0  0  0  0  0
   11.7190    1.3794   -0.4143 H   0  0  0  0  0  0  0  0  0  0  0  0
    9.3702    0.4760   -0.3284 H   0  0  0  0  0  0  0  0  0  0  0  0
    6.8999    0.9425    0.0275 H   0  0  0  0  0  0  0  0  0  0  0  0
  1  2  1  0
  1 18  1  0
  1 19  1  0
  1 20  1  0
  2  3  1  0
  2 21  1  0
  2 22  1  0
  3  4  1  0
  4  5  2  0
  4  6  1  0
  6  7  2  0
  7  8  1  0
  7 17  1  0
  8  9  2  0
  8 23  1  0
  9 10  1  0
  9 24  1  0
 10 11  2  0
 10 16  1  0
 11 12  1  0
 11 25  1  0
 12 13  1  0
 12 14  1  0
 13 26  1  0
 14 15  2  0
 14 27  1  0
 15 16  1  0
 15 28  1  0
 16 17  2  0
 17 29  1  0
M  END

