
     RDKit          3D

 49 49  0  0  0  0  0  0  0  0999 V2000
    9.1946   -0.8984   -1.2470 C   0  0  0  0  0  0  0  0  0  0  0  0
    7.7258   -0.4965   -1.0825 C   0  0  0  0  0  0  0  0  0  0  0  0
    7.5089    0.6608   -0.0850 C   0  0  1  0  0  0  0  0  0  0  0  0
    8.0413    2.0018   -0.6089 C   0  0  0  0  0  0  0  0  0  0  0  0
    6.0551    0.7987    0.4291 C   0  0  1  0  0  0  0  0  0  0  0  0
    5.0146    1.4019   -0.5290 C   0  0  0  0  0  0  0  0  0  0  0  0
    4.7107    0.5547   -1.6634 N   0  0  0  0  0  0  0  0  0  0  0  0
    4.9784    0.9525   -2.9507 C   0  0  0  0  0  0  0  0  0  0  0  0
    5.4095    2.0716   -3.2101 O   0  0  0  0  0  0  0  0  0  0  0  0
    4.7447    0.0151   -3.9540 N   0  0  0  0  0  0  0  0  0  0  0  0
    4.9410    0.4275   -5.3372 C   0  0  0  0  0  0  0  0  0  0  0  0
    5.6934   -0.6438   -6.1395 C   0  0  2  0  0  0  0  0  0  0  0  0
    5.8647   -0.2287   -7.6019 C   0  0  0  0  0  0  0  0  0  0  0  0
    4.9796   -2.0001   -6.0101 C   0  0  0  0  0  0  0  0  0  0  0  0
    4.7272   -2.3736   -4.5363 C   0  0  2  0  0  0  0  0  0  0  0  0
    3.9526   -3.6791   -4.3516 C   0  0  0  0  0  0  0  0  0  0  0  0
    3.0266   -3.8048   -3.5962 O   0  0  0  0  0  0  0  0  0  0  0  0
    4.3836   -4.7322   -5.0805 O   0  0  0  0  0  0  0  0  0  0  0  0
    4.0101   -1.2285   -3.8042 C   0  0  0  0  0  0  0  0  0  0  0  0
    5.6165   -0.4870    0.8676 O   0  0  0  0  0  0  0  0  0  0  0  0
    4.7724   -0.4953    1.9914 C   0  0  0  0  0  0  0  0  0  0  0  0
    9.2958   -1.7582   -1.9292 H   0  0  0  0  0  0  0  0  0  0  0  0
    9.6402   -1.1907   -0.2810 H   0  0  0  0  0  0  0  0  0  0  0  0
    9.8079   -0.0818   -1.6605 H   0  0  0  0  0  0  0  0  0  0  0  0
    7.1564   -1.3681   -0.7238 H   0  0  0  0  0  0  0  0  0  0  0  0
    7.3116   -0.2270   -2.0681 H   0  0  0  0  0  0  0  0  0  0  0  0
    8.0847    0.3943    0.8216 H   0  0  0  0  0  0  0  0  0  0  0  0
    7.5634    2.2776   -1.5627 H   0  0  0  0  0  0  0  0  0  0  0  0
    9.1280    1.9575   -0.7766 H   0  0  0  0  0  0  0  0  0  0  0  0
    7.8596    2.8178    0.1109 H   0  0  0  0  0  0  0  0  0  0  0  0
    6.0981    1.4815    1.3021 H   0  0  0  0  0  0  0  0  0  0  0  0
    5.3527    2.3702   -0.9190 H   0  0  0  0  0  0  0  0  0  0  0  0
    4.0904    1.5941    0.0471 H   0  0  0  0  0  0  0  0  0  0  0  0
    4.5459   -0.4190   -1.4467 H   0  0  0  0  0  0  0  0  0  0  0  0
    5.4899    1.3766   -5.3263 H   0  0  0  0  0  0  0  0  0  0  0  0
    3.9580    0.6174   -5.8182 H   0  0  0  0  0  0  0  0  0  0  0  0
    6.6943   -0.7458   -5.6809 H   0  0  0  0  0  0  0  0  0  0  0  0
    4.8873   -0.0993   -8.0969 H   0  0  0  0  0  0  0  0  0  0  0  0
    6.4285   -0.9857   -8.1706 H   0  0  0  0  0  0  0  0  0  0  0  0
    6.4085    0.7257   -7.6828 H   0  0  0  0  0  0  0  0  0  0  0  0
    5.5829   -2.7719   -6.5232 H   0  0  0  0  0  0  0  0  0  0  0  0
    4.0120   -1.9565   -6.5438 H   0  0  0  0  0  0  0  0  0  0  0  0
    5.7100   -2.5215   -4.0479 H   0  0  0  0  0  0  0  0  0  0  0  0
    5.1248   -4.4734   -5.6465 H   0  0  0  0  0  0  0  0  0  0  0  0
    3.8758   -1.5067   -2.7543 H   0  0  0  0  0  0  0  0  0  0  0  0
    2.9878   -1.1271   -4.2199 H   0  0  0  0  0  0  0  0  0  0  0  0
    4.5301   -1.5445    2.2173 H   0  0  0  0  0  0  0  0  0  0  0  0
    3.8225    0.0483    1.8215 H   0  0  0  0  0  0  0  0  0  0  0  0
    5.2656   -0.0505    2.8784 H   0  0  0  0  0  0  0  0  0  0  0  0
  1  2  1  0
  1 22  1  0
  1 23  1  0
  1 24  1  0
  2  3  1  0
  2 25  1  0
  2 26  1  0
  3  4  1  0
  3  5  1  0
  3 27  1  1
  4 28  1  0
  4 29  1  0
  4 30  1  0
  5  6  1  0
  5 20  1  0
  5 31  1  1
  6  7  1  0
  6 32  1  0
  6 33  1  0
  7  8  1  0
  7 34  1  0
  8  9  2  0
  8 10  1  0
 10 11  1  0
 10 19  1  0
 11 12  1  0
 11 35  1  0
 11 36  1  0
 12 13  1  0
 12 14  1  0
 12 37  1  1
 13 38  1  0
 13 39  1  0
 13 40  1  0
 14 15  1  0
 14 41  1  0
 14 42  1  0
 15 16  1  0
 15 19  1  0
 15 43  1  1
 16 17  2  0
 16 18  1  0
 18 44  1  0
 19 45  1  0
 19 46  1  0
 20 21  1  0
 21 47  1  0
 21 48  1  0
 21 49  1  0
M  END

