
     RDKit          3D

 38 39  0  0  0  0  0  0  0  0999 V2000
    1.0948    0.0840   -1.0120 C   0  0  0  0  0  0  0  0  0  0  0  0
    2.4759    0.0532   -0.7408 O   0  0  0  0  0  0  0  0  0  0  0  0
    3.0781    1.1546   -0.2177 C   0  0  0  0  0  0  0  0  0  0  0  0
    2.4072    2.3408    0.0753 C   0  0  0  0  0  0  0  0  0  0  0  0
    3.1239    3.4359    0.6216 C   0  0  0  0  0  0  0  0  0  0  0  0
    2.4245    4.5917    0.9310 N   0  0  0  0  0  0  0  0  0  0  0  0
    3.0696    5.8261    1.2851 C   0  0  0  0  0  0  0  0  0  0  0  0
    2.0389    6.8730    1.7052 C   0  0  1  0  0  0  0  0  0  0  0  0
    1.1045    6.9740    0.6949 F   0  0  0  0  0  0  0  0  0  0  0  0
    1.3614    6.4235    2.8017 F   0  0  0  0  0  0  0  0  0  0  0  0
    2.6314    8.2381    1.9865 C   0  0  0  0  0  0  0  0  0  0  0  0
    2.8314    9.1481    0.9396 C   0  0  0  0  0  0  0  0  0  0  0  0
    3.4125   10.3922    1.1961 C   0  0  0  0  0  0  0  0  0  0  0  0
    3.7956   10.7334    2.4969 C   0  0  0  0  0  0  0  0  0  0  0  0
    3.5922    9.8283    3.5427 C   0  0  0  0  0  0  0  0  0  0  0  0
    3.0104    8.5832    3.2902 C   0  0  0  0  0  0  0  0  0  0  0  0
    4.5000    3.3148    0.8510 C   0  0  0  0  0  0  0  0  0  0  0  0
    5.1562    2.1053    0.5545 C   0  0  0  0  0  0  0  0  0  0  0  0
    6.4892    2.0917    0.8198 O   0  0  0  0  0  0  0  0  0  0  0  0
    7.2321    0.9265    0.5468 C   0  0  0  0  0  0  0  0  0  0  0  0
    4.4610    1.0205    0.0198 C   0  0  0  0  0  0  0  0  0  0  0  0
    0.8334   -0.9006   -1.4234 H   0  0  0  0  0  0  0  0  0  0  0  0
    0.8371    0.8607   -1.7551 H   0  0  0  0  0  0  0  0  0  0  0  0
    0.4982    0.2585   -0.0981 H   0  0  0  0  0  0  0  0  0  0  0  0
    1.3355    2.4447   -0.0935 H   0  0  0  0  0  0  0  0  0  0  0  0
    1.5324    4.7032    0.4636 H   0  0  0  0  0  0  0  0  0  0  0  0
    3.6791    6.2601    0.4651 H   0  0  0  0  0  0  0  0  0  0  0  0
    3.7489    5.6781    2.1399 H   0  0  0  0  0  0  0  0  0  0  0  0
    2.5193    8.8853   -0.0732 H   0  0  0  0  0  0  0  0  0  0  0  0
    3.5623   11.0998    0.3769 H   0  0  0  0  0  0  0  0  0  0  0  0
    4.2497   11.7074    2.6962 H   0  0  0  0  0  0  0  0  0  0  0  0
    3.8831   10.0937    4.5621 H   0  0  0  0  0  0  0  0  0  0  0  0
    2.8376    7.8795    4.1067 H   0  0  0  0  0  0  0  0  0  0  0  0
    5.0996    4.1287    1.2553 H   0  0  0  0  0  0  0  0  0  0  0  0
    8.2705    1.1418    0.8342 H   0  0  0  0  0  0  0  0  0  0  0  0
    7.2050    0.6622   -0.5258 H   0  0  0  0  0  0  0  0  0  0  0  0
    6.8712    0.0611    1.1317 H   0  0  0  0  0  0  0  0  0  0  0  0
    4.9329    0.0716   -0.2263 H   0  0  0  0  0  0  0  0  0  0  0  0
  1  2  1  0
  1 22  1  0
  1 23  1  0
  1 24  1  0
  2  3  1  0
  3  4  2  0
  3 21  1  0
  4  5  1  0
  4 25  1  0
  5  6  1  0
  5 17  2  0
  6  7  1  0
  6 26  1  0
  7  8  1  0
  7 27  1  0
  7 28  1  0
  8  9  1  6
  8 10  1  0
  8 11  1  0
 11 12  2  0
 11 16  1  0
 12 13  1  0
 12 29  1  0
 13 14  2  0
 13 30  1  0
 14 15  1  0
 14 31  1  0
 15 16  2  0
 15 32  1  0
 16 33  1  0
 17 18  1  0
 17 34  1  0
 18 19  1  0
 18 21  2  0
 19 20  1  0
 20 35  1  0
 20 36  1  0
 20 37  1  0
 21 38  1  0
M  END

