
     RDKit          3D

100106  0  0  0  0  0  0  0  0999 V2000
    3.3555    0.8379   -1.2884 C   0  0  0  0  0  0  0  0  0  0  0  0
    3.5037   -0.1706   -0.1492 C   0  0  0  0  0  0  0  0  0  0  0  0
    3.8178    0.4444    1.2178 C   0  0  0  0  0  0  0  0  0  0  0  0
    5.0681    1.2130    1.2062 N   0  0  0  0  0  0  0  0  0  0  0  0
    5.5244    1.7572    2.4444 C   0  0  0  0  0  0  0  0  0  0  0  0
    6.4101    1.0337    3.3277 C   0  0  0  0  0  0  0  0  0  0  0  0
    7.1955   -0.1015    2.9632 N   0  0  0  0  0  0  0  0  0  0  0  0
    8.6481   -0.0536    3.2009 C   0  0  0  0  0  0  0  0  0  0  0  0
    9.1692   -1.3910    3.7236 C   0  0  0  0  0  0  0  0  0  0  0  0
    8.7447   -2.4721    2.9192 O   0  0  0  0  0  0  0  0  0  0  0  0
    7.3420   -2.5241    2.8201 C   0  0  0  0  0  0  0  0  0  0  0  0
    6.7653   -1.2484    2.1595 C   0  0  2  0  0  0  0  0  0  0  0  0
    7.1357   -1.2170    0.6626 C   0  0  0  0  0  0  0  0  0  0  0  0
    6.7586   -2.2949   -0.1587 C   0  0  0  0  0  0  0  0  0  0  0  0
    7.0574   -2.3103   -1.5223 C   0  0  0  0  0  0  0  0  0  0  0  0
    7.7461   -1.2410   -2.1040 C   0  0  0  0  0  0  0  0  0  0  0  0
    8.1181   -0.1577   -1.3072 C   0  0  0  0  0  0  0  0  0  0  0  0
    7.8134   -0.1462    0.0594 C   0  0  0  0  0  0  0  0  0  0  0  0
    6.5303    1.4940    4.6514 C   0  0  0  0  0  0  0  0  0  0  0  0
    7.0611    0.6641    5.6621 N   0  0  0  0  0  0  0  0  0  0  0  0
    6.2866    0.4935    6.9164 C   0  0  1  0  0  0  0  0  0  0  0  0
    5.0910   -0.4751    6.7738 C   0  0  0  0  0  0  0  0  0  0  0  0
    5.5103   -1.9488    6.6825 C   0  0  0  0  0  0  0  0  0  0  0  0
    6.4204   -2.3560    7.8491 C   0  0  0  0  0  0  0  0  0  0  0  0
    7.6359   -1.4255    7.9587 C   0  0  0  0  0  0  0  0  0  0  0  0
    7.2084    0.0448    8.0650 C   0  0  0  0  0  0  0  0  0  0  0  0
    6.2360    2.8719    4.9489 C   0  0  0  0  0  0  0  0  0  0  0  0
    6.7740    3.4752    6.1215 C   0  0  0  0  0  0  0  0  0  0  0  0
    6.5964    4.8204    6.3578 C   0  0  0  0  0  0  0  0  0  0  0  0
    5.8952    5.6246    5.4439 C   0  0  0  0  0  0  0  0  0  0  0  0
    5.3621    5.0892    4.2710 C   0  0  0  0  0  0  0  0  0  0  0  0
    4.8042    5.9027    3.2923 N   0  0  0  0  0  0  0  0  0  0  0  0
    4.3522    7.2200    3.3601 C   0  0  0  0  0  0  0  0  0  0  0  0
    4.3699    7.9890    2.1748 C   0  0  0  0  0  0  0  0  0  0  0  0
    3.8718    9.2910    2.1545 C   0  0  0  0  0  0  0  0  0  0  0  0
    3.3545    9.8734    3.3165 C   0  0  0  0  0  0  0  0  0  0  0  0
    3.3305    9.1203    4.4941 C   0  0  0  0  0  0  0  0  0  0  0  0
    3.8134    7.8104    4.5233 C   0  0  0  0  0  0  0  0  0  0  0  0
    5.4991    3.6657    4.0064 C   0  0  0  0  0  0  0  0  0  0  0  0
    5.0259    3.0148    2.8136 C   0  0  0  0  0  0  0  0  0  0  0  0
    4.1072    3.6706    1.9386 N   0  0  0  0  0  0  0  0  0  0  0  0
    2.7245    3.8042    2.4245 C   0  0  0  0  0  0  0  0  0  0  0  0
    1.8862    4.8072    1.6144 C   0  0  0  0  0  0  0  0  0  0  0  0
    1.6105    4.4323    0.1735 C   0  0  0  0  0  0  0  0  0  0  0  0
    0.4873    3.6588   -0.1669 C   0  0  0  0  0  0  0  0  0  0  0  0
    0.2139    3.3291   -1.4972 C   0  0  0  0  0  0  0  0  0  0  0  0
    1.0643    3.7661   -2.5178 C   0  0  0  0  0  0  0  0  0  0  0  0
    2.1889    4.5307   -2.1953 C   0  0  0  0  0  0  0  0  0  0  0  0
    2.4569    4.8601   -0.8631 C   0  0  0  0  0  0  0  0  0  0  0  0
    3.1014    0.3296   -2.2325 H   0  0  0  0  0  0  0  0  0  0  0  0
    4.2878    1.3992   -1.4512 H   0  0  0  0  0  0  0  0  0  0  0  0
    2.5594    1.5694   -1.0800 H   0  0  0  0  0  0  0  0  0  0  0  0
    4.2897   -0.9030   -0.4037 H   0  0  0  0  0  0  0  0  0  0  0  0
    2.5724   -0.7539   -0.0419 H   0  0  0  0  0  0  0  0  0  0  0  0
    3.8344   -0.3642    1.9811 H   0  0  0  0  0  0  0  0  0  0  0  0
    2.9946    1.1132    1.5161 H   0  0  0  0  0  0  0  0  0  0  0  0
    5.7968    0.7034    0.7173 H   0  0  0  0  0  0  0  0  0  0  0  0
    8.8741    0.7325    3.9328 H   0  0  0  0  0  0  0  0  0  0  0  0
    9.1984    0.1942    2.2749 H   0  0  0  0  0  0  0  0  0  0  0  0
    8.8357   -1.5529    4.7698 H   0  0  0  0  0  0  0  0  0  0  0  0
   10.2700   -1.3978    3.7200 H   0  0  0  0  0  0  0  0  0  0  0  0
    6.8837   -2.6347    3.8234 H   0  0  0  0  0  0  0  0  0  0  0  0
    7.0991   -3.4214    2.2348 H   0  0  0  0  0  0  0  0  0  0  0  0
    5.6697   -1.3243    2.2398 H   0  0  0  0  0  0  0  0  0  0  0  0
    6.2092   -3.1382    0.2682 H   0  0  0  0  0  0  0  0  0  0  0  0
    6.7475   -3.1613   -2.1344 H   0  0  0  0  0  0  0  0  0  0  0  0
    7.9843   -1.2515   -3.1705 H   0  0  0  0  0  0  0  0  0  0  0  0
    8.6490    0.6908   -1.7464 H   0  0  0  0  0  0  0  0  0  0  0  0
    8.0974    0.7217    0.6558 H   0  0  0  0  0  0  0  0  0  0  0  0
    7.2742   -0.2451    5.2635 H   0  0  0  0  0  0  0  0  0  0  0  0
    5.8807    1.4780    7.1746 H   0  0  0  0  0  0  0  0  0  0  0  0
    4.4855   -0.1844    5.8991 H   0  0  0  0  0  0  0  0  0  0  0  0
    4.4417   -0.3444    7.6586 H   0  0  0  0  0  0  0  0  0  0  0  0
    6.0439   -2.1245    5.7307 H   0  0  0  0  0  0  0  0  0  0  0  0
    4.6160   -2.5933    6.6460 H   0  0  0  0  0  0  0  0  0  0  0  0
    6.7450   -3.4042    7.7362 H   0  0  0  0  0  0  0  0  0  0  0  0
    5.8436   -2.3095    8.7917 H   0  0  0  0  0  0  0  0  0  0  0  0
    8.2847   -1.5613    7.0736 H   0  0  0  0  0  0  0  0  0  0  0  0
    8.2550   -1.7015    8.8286 H   0  0  0  0  0  0  0  0  0  0  0  0
    8.0903    0.7043    8.1006 H   0  0  0  0  0  0  0  0  0  0  0  0
    6.6627    0.1853    9.0154 H   0  0  0  0  0  0  0  0  0  0  0  0
    7.3999    2.8831    6.7864 H   0  0  0  0  0  0  0  0  0  0  0  0
    7.0474    5.2856    7.2384 H   0  0  0  0  0  0  0  0  0  0  0  0
    5.8419    6.6985    5.6142 H   0  0  0  0  0  0  0  0  0  0  0  0
    4.6748    5.4193    2.3989 H   0  0  0  0  0  0  0  0  0  0  0  0
    4.7948    7.5508    1.2676 H   0  0  0  0  0  0  0  0  0  0  0  0
    3.9000    9.8603    1.2214 H   0  0  0  0  0  0  0  0  0  0  0  0
    2.9744   10.8974    3.3035 H   0  0  0  0  0  0  0  0  0  0  0  0
    2.9157    9.5523    5.4092 H   0  0  0  0  0  0  0  0  0  0  0  0
    3.7458    7.2330    5.4452 H   0  0  0  0  0  0  0  0  0  0  0  0
    4.1391    3.1923    1.0365 H   0  0  0  0  0  0  0  0  0  0  0  0
    2.7664    4.1583    3.4648 H   0  0  0  0  0  0  0  0  0  0  0  0
    2.2050    2.8249    2.4513 H   0  0  0  0  0  0  0  0  0  0  0  0
    2.3822    5.7898    1.6487 H   0  0  0  0  0  0  0  0  0  0  0  0
    0.9257    4.9250    2.1428 H   0  0  0  0  0  0  0  0  0  0  0  0
   -0.1925    3.3244    0.6227 H   0  0  0  0  0  0  0  0  0  0  0  0
   -0.6714    2.7348   -1.7389 H   0  0  0  0  0  0  0  0  0  0  0  0
    0.8492    3.5145   -3.5595 H   0  0  0  0  0  0  0  0  0  0  0  0
    2.8585    4.8802   -2.9857 H   0  0  0  0  0  0  0  0  0  0  0  0
    3.3304    5.4720   -0.6220 H   0  0  0  0  0  0  0  0  0  0  0  0
  1  2  1  0
  1 50  1  0
  1 51  1  0
  1 52  1  0
  2  3  1  0
  2 53  1  0
  2 54  1  0
  3  4  1  0
  3 55  1  0
  3 56  1  0
  4  5  1  0
  4 57  1  0
  5  6  2  0
  5 40  1  0
  6  7  1  0
  6 19  1  0
  7  8  1  0
  7 12  1  0
  8  9  1  0
  8 58  1  0
  8 59  1  0
  9 10  1  0
  9 60  1  0
  9 61  1  0
 10 11  1  0
 11 12  1  0
 11 62  1  0
 11 63  1  0
 12 13  1  0
 12 64  1  6
 13 14  2  0
 13 18  1  0
 14 15  1  0
 14 65  1  0
 15 16  2  0
 15 66  1  0
 16 17  1  0
 16 67  1  0
 17 18  2  0
 17 68  1  0
 18 69  1  0
 19 20  1  0
 19 27  2  0
 20 21  1  0
 20 70  1  0
 21 22  1  0
 21 26  1  0
 21 71  1  1
 22 23  1  0
 22 72  1  0
 22 73  1  0
 23 24  1  0
 23 74  1  0
 23 75  1  0
 24 25  1  0
 24 76  1  0
 24 77  1  0
 25 26  1  0
 25 78  1  0
 25 79  1  0
 26 80  1  0
 26 81  1  0
 27 28  1  0
 27 39  1  0
 28 29  2  0
 28 82  1  0
 29 30  1  0
 29 83  1  0
 30 31  2  0
 30 84  1  0
 31 32  1  0
 31 39  1  0
 32 33  1  0
 32 85  1  0
 33 34  2  0
 33 38  1  0
 34 35  1  0
 34 86  1  0
 35 36  2  0
 35 87  1  0
 36 37  1  0
 36 88  1  0
 37 38  2  0
 37 89  1  0
 38 90  1  0
 39 40  2  0
 40 41  1  0
 41 42  1  0
 41 91  1  0
 42 43  1  0
 42 92  1  0
 42 93  1  0
 43 44  1  0
 43 94  1  0
 43 95  1  0
 44 45  2  0
 44 49  1  0
 45 46  1  0
 45 96  1  0
 46 47  2  0
 46 97  1  0
 47 48  1  0
 47 98  1  0
 48 49  2  0
 48 99  1  0
 49100  1  0
M  END

