
     RDKit          3D

 47 51  0  0  0  0  0  0  0  0999 V2000
    2.0188   -1.3219   -1.2293 C   0  0  0  0  0  0  0  0  0  0  0  0
    1.4201    0.3893   -1.4118 S   0  0  0  0  0  0  0  0  0  0  0  0
    2.7930    1.4199   -1.7919 C   0  0  0  0  0  0  0  0  0  0  0  0
    2.5386    2.7993   -1.4992 C   0  0  0  0  0  0  0  0  0  0  0  0
    3.4974    3.7445   -1.7421 C   0  0  0  0  0  0  0  0  0  0  0  0
    3.3140    5.1842   -1.5156 C   0  0  0  0  0  0  0  0  0  0  0  0
    2.1362    5.8125   -1.8430 C   0  0  0  0  0  0  0  0  0  0  0  0
    1.9426    7.2062   -1.6419 C   0  0  0  0  0  0  0  0  0  0  0  0
    0.7653    7.9108   -1.9801 C   0  0  0  0  0  0  0  0  0  0  0  0
    0.6454    9.2736   -1.7911 C   0  0  0  0  0  0  0  0  0  0  0  0
    1.7411   10.0031   -1.2131 C   0  0  0  0  0  0  0  0  0  0  0  0
    2.9418    9.3218   -0.8689 C   0  0  0  0  0  0  0  0  0  0  0  0
    3.0144    7.9472   -1.0915 C   0  0  0  0  0  0  0  0  0  0  0  0
    4.1684    7.3188   -0.7497 O   0  0  0  0  0  0  0  0  0  0  0  0
    4.4066    5.9498   -0.8911 C   0  0  0  0  0  0  0  0  0  0  0  0
    5.4465    5.5236   -0.4735 O   0  0  0  0  0  0  0  0  0  0  0  0
    4.1112   10.0794   -0.2878 C   0  0  0  0  0  0  0  0  0  0  0  0
    4.0943   11.5243   -0.7827 C   0  0  0  0  0  0  0  0  0  0  0  0
    2.7411   12.1623   -0.5001 C   0  0  0  0  0  0  0  0  0  0  0  0
    1.6276   11.3557   -0.9942 N   0  0  0  0  0  0  0  0  0  0  0  0
    0.3823   12.0903   -1.1999 C   0  0  0  0  0  0  0  0  0  0  0  0
   -0.8425   11.1851   -1.2138 C   0  0  0  0  0  0  0  0  0  0  0  0
   -0.6108   10.0201   -2.1746 C   0  0  0  0  0  0  0  0  0  0  0  0
    4.6985    3.4021   -2.2311 O   0  0  0  0  0  0  0  0  0  0  0  0
    5.0684    2.0874   -2.5441 C   0  0  0  0  0  0  0  0  0  0  0  0
    6.1714    1.9032   -2.9731 O   0  0  0  0  0  0  0  0  0  0  0  0
    4.0278    1.0717   -2.3331 C   0  0  0  0  0  0  0  0  0  0  0  0
    4.3719   -0.2339   -2.7928 C   0  0  0  0  0  0  0  0  0  0  0  0
    4.6416   -1.2901   -3.1964 N   0  0  0  0  0  0  0  0  0  0  0  0
    1.1687   -1.8452   -0.7682 H   0  0  0  0  0  0  0  0  0  0  0  0
    2.8808   -1.3641   -0.5506 H   0  0  0  0  0  0  0  0  0  0  0  0
    2.2699   -1.7894   -2.1876 H   0  0  0  0  0  0  0  0  0  0  0  0
    1.5993    3.0910   -1.0318 H   0  0  0  0  0  0  0  0  0  0  0  0
    1.3296    5.2353   -2.3045 H   0  0  0  0  0  0  0  0  0  0  0  0
   -0.0733    7.3555   -2.4106 H   0  0  0  0  0  0  0  0  0  0  0  0
    5.0509    9.5763   -0.5551 H   0  0  0  0  0  0  0  0  0  0  0  0
    4.0631   10.0623    0.8172 H   0  0  0  0  0  0  0  0  0  0  0  0
    4.2928   11.5476   -1.8678 H   0  0  0  0  0  0  0  0  0  0  0  0
    4.8828   12.1196   -0.2967 H   0  0  0  0  0  0  0  0  0  0  0  0
    2.6808   13.1531   -0.9823 H   0  0  0  0  0  0  0  0  0  0  0  0
    2.6219   12.3365    0.5887 H   0  0  0  0  0  0  0  0  0  0  0  0
    0.4395   12.6646   -2.1469 H   0  0  0  0  0  0  0  0  0  0  0  0
    0.2900   12.8357   -0.3909 H   0  0  0  0  0  0  0  0  0  0  0  0
   -1.7243   11.7769   -1.5049 H   0  0  0  0  0  0  0  0  0  0  0  0
   -1.0306   10.7974   -0.1981 H   0  0  0  0  0  0  0  0  0  0  0  0
   -0.5183   10.4144   -3.2045 H   0  0  0  0  0  0  0  0  0  0  0  0
   -1.4714    9.3335   -2.1821 H   0  0  0  0  0  0  0  0  0  0  0  0
  1  2  1  0
  1 30  1  0
  1 31  1  0
  1 32  1  0
  2  3  2  0
  3  4  1  0
  3 27  1  0
  4  5  2  0
  4 33  1  0
  5  6  1  0
  5 24  1  0
  6  7  2  0
  6 15  1  0
  7  8  1  0
  7 34  1  0
  8  9  2  0
  8 13  1  0
  9 10  1  0
  9 35  1  0
 10 11  2  0
 10 23  1  0
 11 12  1  0
 11 20  1  0
 12 13  2  0
 12 17  1  0
 13 14  1  0
 14 15  1  0
 15 16  2  0
 17 18  1  0
 17 36  1  0
 17 37  1  0
 18 19  1  0
 18 38  1  0
 18 39  1  0
 19 20  1  0
 19 40  1  0
 19 41  1  0
 20 21  1  0
 21 22  1  0
 21 42  1  0
 21 43  1  0
 22 23  1  0
 22 44  1  0
 22 45  1  0
 23 46  1  0
 23 47  1  0
 24 25  1  0
 25 26  1  0
 25 27  2  0
 27 28  1  0
 28 29  3  0
M  CHG  2   2   1  26  -1
M  END

