
     RDKit          3D

 42 44  0  0  0  0  0  0  0  0999 V2000
    4.2965    2.6752    1.2760 C   0  0  0  0  0  0  0  0  0  0  0  0
    3.2719    1.7586    1.9254 C   0  0  0  0  0  0  0  0  0  0  0  0
    3.8972    0.7359    2.7175 O   0  0  0  0  0  0  0  0  0  0  0  0
    4.2877   -0.3915    2.0809 C   0  0  0  0  0  0  0  0  0  0  0  0
    4.1331   -0.5785    0.8930 O   0  0  0  0  0  0  0  0  0  0  0  0
    4.9081   -1.3412    3.0284 C   0  0  0  0  0  0  0  0  0  0  0  0
    5.3796   -2.5286    2.5921 C   0  0  0  0  0  0  0  0  0  0  0  0
    6.0343   -3.5487    3.3898 C   0  0  0  0  0  0  0  0  0  0  0  0
    6.5454   -3.4240    4.6781 C   0  0  0  0  0  0  0  0  0  0  0  0
    7.1354   -4.6052    4.9999 N   0  0  0  0  0  0  0  0  0  0  0  0
    7.7890   -4.9576    6.2130 C   0  0  0  0  0  0  0  0  0  0  0  0
    8.2360   -3.9646    7.0962 C   0  0  0  0  0  0  0  0  0  0  0  0
    8.8606   -4.3320    8.2898 C   0  0  0  0  0  0  0  0  0  0  0  0
    9.0543   -5.6801    8.6039 C   0  0  0  0  0  0  0  0  0  0  0  0
    8.6170   -6.6639    7.7111 C   0  0  0  0  0  0  0  0  0  0  0  0
    7.9835   -6.3120    6.5189 C   0  0  0  0  0  0  0  0  0  0  0  0
    7.0313   -5.5058    4.0019 N   0  0  0  0  0  0  0  0  0  0  0  0
    6.3723   -4.8999    3.0186 C   0  0  0  0  0  0  0  0  0  0  0  0
    6.1045   -5.6269    1.7625 C   0  0  0  0  0  0  0  0  0  0  0  0
    7.0232   -6.5931    1.3095 C   0  0  0  0  0  0  0  0  0  0  0  0
    6.7962   -7.3093    0.1364 C   0  0  0  0  0  0  0  0  0  0  0  0
    5.6348   -7.0653   -0.6045 C   0  0  0  0  0  0  0  0  0  0  0  0
    5.3470   -7.9562   -2.0810 Cl  0  0  0  0  0  0  0  0  0  0  0  0
    4.7015   -6.1204   -0.1723 C   0  0  0  0  0  0  0  0  0  0  0  0
    4.9380   -5.4111    1.0067 C   0  0  0  0  0  0  0  0  0  0  0  0
    3.7849    3.4939    0.7446 H   0  0  0  0  0  0  0  0  0  0  0  0
    4.9060    2.1222    0.5462 H   0  0  0  0  0  0  0  0  0  0  0  0
    4.9630    3.1190    2.0321 H   0  0  0  0  0  0  0  0  0  0  0  0
    2.6353    1.2833    1.1642 H   0  0  0  0  0  0  0  0  0  0  0  0
    2.6354    2.3112    2.6322 H   0  0  0  0  0  0  0  0  0  0  0  0
    4.9516   -1.0336    4.0760 H   0  0  0  0  0  0  0  0  0  0  0  0
    5.2644   -2.7306    1.5230 H   0  0  0  0  0  0  0  0  0  0  0  0
    6.5260   -2.5815    5.3630 H   0  0  0  0  0  0  0  0  0  0  0  0
    8.1182   -2.9078    6.8525 H   0  0  0  0  0  0  0  0  0  0  0  0
    9.2079   -3.5533    8.9732 H   0  0  0  0  0  0  0  0  0  0  0  0
    9.5471   -5.9621    9.5372 H   0  0  0  0  0  0  0  0  0  0  0  0
    8.7652   -7.7209    7.9455 H   0  0  0  0  0  0  0  0  0  0  0  0
    7.6348   -7.0659    5.8140 H   0  0  0  0  0  0  0  0  0  0  0  0
    7.9278   -6.7749    1.8923 H   0  0  0  0  0  0  0  0  0  0  0  0
    7.5154   -8.0524   -0.2119 H   0  0  0  0  0  0  0  0  0  0  0  0
    3.7923   -5.9495   -0.7507 H   0  0  0  0  0  0  0  0  0  0  0  0
    4.1835   -4.7021    1.3511 H   0  0  0  0  0  0  0  0  0  0  0  0
  1  2  1  0
  1 26  1  0
  1 27  1  0
  1 28  1  0
  2  3  1  0
  2 29  1  0
  2 30  1  0
  3  4  1  0
  4  5  2  0
  4  6  1  0
  6  7  2  0
  6 31  1  0
  7  8  1  0
  7 32  1  0
  8  9  2  0
  8 18  1  0
  9 10  1  0
  9 33  1  0
 10 11  1  0
 10 17  1  0
 11 12  2  0
 11 16  1  0
 12 13  1  0
 12 34  1  0
 13 14  2  0
 13 35  1  0
 14 15  1  0
 14 36  1  0
 15 16  2  0
 15 37  1  0
 16 38  1  0
 17 18  2  0
 18 19  1  0
 19 20  2  0
 19 25  1  0
 20 21  1  0
 20 39  1  0
 21 22  2  0
 21 40  1  0
 22 23  1  0
 22 24  1  0
 24 25  2  0
 24 41  1  0
 25 42  1  0
M  END

