
     RDKit          3D

 27 29  0  0  0  0  0  0  0  0999 V2000
    1.0579   -0.3272   -0.0747 C   0  0  0  0  0  0  0  0  0  0  0  0
    2.5494   -0.0998   -0.0762 C   0  0  0  0  0  0  0  0  0  0  0  0
    3.3355   -1.2176   -0.0782 C   0  0  0  0  0  0  0  0  0  0  0  0
    4.7844   -1.1971   -0.0800 C   0  0  0  0  0  0  0  0  0  0  0  0
    5.5287   -2.1429   -0.0814 O   0  0  0  0  0  0  0  0  0  0  0  0
    5.3323    0.0752   -0.0792 O   0  0  0  0  0  0  0  0  0  0  0  0
    4.5989    1.2114   -0.0773 C   0  0  0  0  0  0  0  0  0  0  0  0
    5.3874    2.3883   -0.0771 C   0  0  0  0  0  0  0  0  0  0  0  0
    4.7726    3.6096   -0.0754 C   0  0  0  0  0  0  0  0  0  0  0  0
    3.3539    3.7126   -0.0737 C   0  0  0  0  0  0  0  0  0  0  0  0
    2.7413    4.9923   -0.0720 C   0  0  0  0  0  0  0  0  0  0  0  0
    1.3730    5.1430   -0.0703 C   0  0  0  0  0  0  0  0  0  0  0  0
    0.5602    3.9854   -0.0702 C   0  0  0  0  0  0  0  0  0  0  0  0
   -0.7946    4.0621   -0.0690 O   0  0  0  0  0  0  0  0  0  0  0  0
    1.1309    2.7201   -0.0719 C   0  0  0  0  0  0  0  0  0  0  0  0
    2.5361    2.5240   -0.0738 C   0  0  0  0  0  0  0  0  0  0  0  0
    3.1920    1.2204   -0.0757 C   0  0  0  0  0  0  0  0  0  0  0  0
    0.8473   -1.4049   -0.0756 H   0  0  0  0  0  0  0  0  0  0  0  0
    0.5754    0.1106   -0.9618 H   0  0  0  0  0  0  0  0  0  0  0  0
    0.5775    0.1086    0.8146 H   0  0  0  0  0  0  0  0  0  0  0  0
    2.8928   -2.2145   -0.0786 H   0  0  0  0  0  0  0  0  0  0  0  0
    6.4720    2.2732   -0.0784 H   0  0  0  0  0  0  0  0  0  0  0  0
    5.3665    4.5273   -0.0752 H   0  0  0  0  0  0  0  0  0  0  0  0
    3.3863    5.8749   -0.0720 H   0  0  0  0  0  0  0  0  0  0  0  0
    0.9162    6.1373   -0.0692 H   0  0  0  0  0  0  0  0  0  0  0  0
   -1.0702    4.9879   -0.0665 H   0  0  0  0  0  0  0  0  0  0  0  0
    0.4338    1.8931   -0.0717 H   0  0  0  0  0  0  0  0  0  0  0  0
  1  2  1  0
  1 18  1  0
  1 19  1  0
  1 20  1  0
  2  3  2  0
  2 17  1  0
  3  4  1  0
  3 21  1  0
  4  5  2  0
  4  6  1  0
  6  7  1  0
  7  8  1  0
  7 17  2  0
  8  9  2  0
  8 22  1  0
  9 10  1  0
  9 23  1  0
 10 11  1  0
 10 16  2  0
 11 12  2  0
 11 24  1  0
 12 13  1  0
 12 25  1  0
 13 14  1  0
 13 15  2  0
 14 26  1  0
 15 16  1  0
 15 27  1  0
 16 17  1  0
M  END

