
     RDKit          3D

 50 54  0  0  0  0  0  0  0  0999 V2000
    4.7139    2.4681   -0.7618 O   0  0  0  0  0  0  0  0  0  0  0  0
    4.3330    1.4588   -0.2262 C   0  0  0  0  0  0  0  0  0  0  0  0
    3.1924    1.4675    0.5137 O   0  0  0  0  0  0  0  0  0  0  0  0
    5.0564    0.1672   -0.3448 C   0  0  0  0  0  0  0  0  0  0  0  0
    4.5118   -1.0519   -0.1341 C   0  0  0  0  0  0  0  0  0  0  0  0
    5.1722   -2.3376   -0.2876 C   0  0  0  0  0  0  0  0  0  0  0  0
    6.5140   -2.5475   -0.5923 C   0  0  0  0  0  0  0  0  0  0  0  0
    6.7172   -3.8877   -0.6364 N   0  0  0  0  0  0  0  0  0  0  0  0
    7.9274   -4.5841   -0.9033 C   0  0  0  0  0  0  0  0  0  0  0  0
    8.9985   -3.9348   -1.5338 C   0  0  0  0  0  0  0  0  0  0  0  0
   10.1863   -4.6298   -1.7698 C   0  0  0  0  0  0  0  0  0  0  0  0
   10.3106   -5.9706   -1.3951 C   0  0  0  0  0  0  0  0  0  0  0  0
    9.2326   -6.6151   -0.7801 C   0  0  0  0  0  0  0  0  0  0  0  0
    8.0428   -5.9306   -0.5296 C   0  0  0  0  0  0  0  0  0  0  0  0
    5.5824   -4.5718   -0.3706 N   0  0  0  0  0  0  0  0  0  0  0  0
    4.6327   -3.6717   -0.1572 C   0  0  0  0  0  0  0  0  0  0  0  0
    3.2193   -4.1273    0.1610 C   0  0  2  0  0  0  0  0  0  0  0  0
    3.1360   -5.6765    0.1658 C   0  0  0  0  0  0  0  0  0  0  0  0
    1.7060   -6.1493    0.4866 C   0  0  1  0  0  0  0  0  0  0  0  0
    1.2903   -5.6324    1.8767 C   0  0  0  0  0  0  0  0  0  0  0  0
    1.3409   -4.0934    1.8823 C   0  0  2  0  0  0  0  0  0  0  0  0
    0.3729   -3.5431    0.8165 C   0  0  0  0  0  0  0  0  0  0  0  0
    0.7808   -4.0693   -0.5737 C   0  0  2  0  0  0  0  0  0  0  0  0
    0.7311   -5.6083   -0.5759 C   0  0  0  0  0  0  0  0  0  0  0  0
    2.2116   -3.5999   -0.9018 C   0  0  0  0  0  0  0  0  0  0  0  0
    2.7748   -3.6251    1.5658 C   0  0  0  0  0  0  0  0  0  0  0  0
    3.1189    0.6476    1.0212 H   0  0  0  0  0  0  0  0  0  0  0  0
    6.0776    0.2812   -0.7166 H   0  0  0  0  0  0  0  0  0  0  0  0
    3.4602   -1.1009    0.1624 H   0  0  0  0  0  0  0  0  0  0  0  0
    7.3199   -1.8360   -0.7465 H   0  0  0  0  0  0  0  0  0  0  0  0
    8.9074   -2.8974   -1.8592 H   0  0  0  0  0  0  0  0  0  0  0  0
   11.0165   -4.1176   -2.2621 H   0  0  0  0  0  0  0  0  0  0  0  0
   11.2405   -6.5111   -1.5860 H   0  0  0  0  0  0  0  0  0  0  0  0
    9.3173   -7.6642   -0.4861 H   0  0  0  0  0  0  0  0  0  0  0  0
    7.1951   -6.4187   -0.0506 H   0  0  0  0  0  0  0  0  0  0  0  0
    3.8473   -6.0790    0.9041 H   0  0  0  0  0  0  0  0  0  0  0  0
    3.4594   -6.0633   -0.8132 H   0  0  0  0  0  0  0  0  0  0  0  0
    1.6854   -7.2525    0.4806 H   0  0  0  0  0  0  0  0  0  0  0  0
    1.9650   -6.0373    2.6508 H   0  0  0  0  0  0  0  0  0  0  0  0
    0.2728   -5.9801    2.1262 H   0  0  0  0  0  0  0  0  0  0  0  0
    1.0516   -3.7148    2.8777 H   0  0  0  0  0  0  0  0  0  0  0  0
    0.3840   -2.4386    0.8240 H   0  0  0  0  0  0  0  0  0  0  0  0
   -0.6613   -3.8497    1.0497 H   0  0  0  0  0  0  0  0  0  0  0  0
    0.0902   -3.6727   -1.3373 H   0  0  0  0  0  0  0  0  0  0  0  0
    1.0023   -5.9952   -1.5733 H   0  0  0  0  0  0  0  0  0  0  0  0
   -0.2953   -5.9564   -0.3664 H   0  0  0  0  0  0  0  0  0  0  0  0
    2.2377   -2.4991   -0.9486 H   0  0  0  0  0  0  0  0  0  0  0  0
    2.5143   -3.9619   -1.8989 H   0  0  0  0  0  0  0  0  0  0  0  0
    3.4786   -4.0040    2.3261 H   0  0  0  0  0  0  0  0  0  0  0  0
    2.8225   -2.5250    1.6171 H   0  0  0  0  0  0  0  0  0  0  0  0
  1  2  2  0
  2  3  1  0
  2  4  1  0
  3 27  1  0
  4  5  2  0
  4 28  1  0
  5  6  1  0
  5 29  1  0
  6  7  2  0
  6 16  1  0
  7  8  1  0
  7 30  1  0
  8  9  1  0
  8 15  1  0
  9 10  2  0
  9 14  1  0
 10 11  1  0
 10 31  1  0
 11 12  2  0
 11 32  1  0
 12 13  1  0
 12 33  1  0
 13 14  2  0
 13 34  1  0
 14 35  1  0
 15 16  2  0
 17 16  1  6
 17 18  1  0
 17 25  1  0
 17 26  1  0
 18 19  1  0
 18 36  1  0
 18 37  1  0
 19 20  1  0
 19 24  1  0
 19 38  1  1
 20 21  1  0
 20 39  1  0
 20 40  1  0
 21 22  1  0
 21 26  1  0
 21 41  1  1
 22 23  1  0
 22 42  1  0
 22 43  1  0
 23 24  1  0
 23 25  1  0
 23 44  1  6
 24 45  1  0
 24 46  1  0
 25 47  1  0
 25 48  1  0
 26 49  1  0
 26 50  1  0
M  END

