
     RDKit          3D

 33 35  0  0  0  0  0  0  0  0999 V2000
    1.1870   -0.4704    0.0873 C   0  0  0  0  0  0  0  0  0  0  0  0
    2.3367    0.5511    0.0750 C   0  0  0  0  0  0  0  0  0  0  0  0
    3.1123    0.5822   -1.2130 C   0  0  0  0  0  0  0  0  0  0  0  0
    4.2675   -0.1337   -1.5233 C   0  0  0  0  0  0  0  0  0  0  0  0
    5.0148   -1.0904   -0.6481 C   0  0  0  0  0  0  0  0  0  0  0  0
    4.6077    0.2056   -2.8761 C   0  0  0  0  0  0  0  0  0  0  0  0
    5.6570   -0.2141   -3.6735 C   0  0  0  0  0  0  0  0  0  0  0  0
    5.8106    0.2411   -4.9932 C   0  0  0  0  0  0  0  0  0  0  0  0
    6.7899   -0.0477   -5.9825 C   0  0  0  0  0  0  0  0  0  0  0  0
    8.4143   -1.3389   -5.7392 I   0  0  0  0  0  0  0  0  0  0  0  0
    6.4455    0.6936   -7.1216 C   0  0  0  0  0  0  0  0  0  0  0  0
    7.4146    0.7827   -8.9731 I   0  0  0  0  0  0  0  0  0  0  0  0
    5.2751    1.4088   -6.7984 C   0  0  0  0  0  0  0  0  0  0  0  0
    4.9031    1.1372   -5.5376 N   0  0  0  0  0  0  0  0  0  0  0  0
    3.6516    1.7389   -4.7964 B   0  0  2  0  0  0  0  0  0  0  0  0
    2.4944    1.3788   -5.4648 F   0  0  0  0  0  0  0  0  0  0  0  0
    3.7752    3.1157   -4.7169 F   0  0  0  0  0  0  0  0  0  0  0  0
    3.6592    1.1101   -3.3561 N   0  0  0  0  0  0  0  0  0  0  0  0
    2.7672    1.3406   -2.3802 C   0  0  0  0  0  0  0  0  0  0  0  0
    1.6156    2.2691   -2.5700 C   0  0  0  0  0  0  0  0  0  0  0  0
    0.6566   -0.4563    1.0530 H   0  0  0  0  0  0  0  0  0  0  0  0
    1.5609   -1.4931   -0.0794 H   0  0  0  0  0  0  0  0  0  0  0  0
    0.4520   -0.2559   -0.7049 H   0  0  0  0  0  0  0  0  0  0  0  0
    3.0269    0.3280    0.9056 H   0  0  0  0  0  0  0  0  0  0  0  0
    1.9322    1.5550    0.2876 H   0  0  0  0  0  0  0  0  0  0  0  0
    5.0058   -0.7616    0.4025 H   0  0  0  0  0  0  0  0  0  0  0  0
    6.0656   -1.1965   -0.9553 H   0  0  0  0  0  0  0  0  0  0  0  0
    4.5625   -2.0974   -0.6735 H   0  0  0  0  0  0  0  0  0  0  0  0
    6.3905   -0.9184   -3.2774 H   0  0  0  0  0  0  0  0  0  0  0  0
    4.7060    2.0945   -7.4238 H   0  0  0  0  0  0  0  0  0  0  0  0
    0.9471    1.8886   -3.3591 H   0  0  0  0  0  0  0  0  0  0  0  0
    1.9731    3.2515   -2.9155 H   0  0  0  0  0  0  0  0  0  0  0  0
    1.0415    2.3945   -1.6435 H   0  0  0  0  0  0  0  0  0  0  0  0
  1  2  1  0
  1 21  1  0
  1 22  1  0
  1 23  1  0
  2  3  1  0
  2 24  1  0
  2 25  1  0
  3  4  2  0
  3 19  1  0
  4  5  1  0
  4  6  1  0
  5 26  1  0
  5 27  1  0
  5 28  1  0
  6  7  2  0
  6 18  1  0
  7  8  1  0
  7 29  1  0
  8  9  2  0
  8 14  1  0
  9 10  1  0
  9 11  1  0
 11 12  1  0
 11 13  2  0
 13 14  1  0
 13 30  1  0
 14 15  1  0
 15 16  1  6
 15 17  1  0
 15 18  1  0
 18 19  2  0
 19 20  1  0
 20 31  1  0
 20 32  1  0
 20 33  1  0
M  CHG  2  15  -1  18   1
M  END

