
     RDKit          3D

 79 83  0  0  0  0  0  0  0  0999 V2000
    3.5490    0.3733    1.4920 C   0  0  0  0  0  0  0  0  0  0  0  0
    2.5198   -0.6965    1.1125 C   0  0  1  0  0  0  0  0  0  0  0  0
    2.9152   -2.0859    1.6230 C   0  0  0  0  0  0  0  0  0  0  0  0
    1.1288   -0.3098    1.6191 C   0  0  0  0  0  0  0  0  0  0  0  0
    2.3429   -0.7254   -0.3454 O   0  0  0  0  0  0  0  0  0  0  0  0
    3.3538   -1.0478   -1.1787 C   0  0  0  0  0  0  0  0  0  0  0  0
    4.4937   -1.3054   -0.8332 O   0  0  0  0  0  0  0  0  0  0  0  0
    2.9519   -1.0440   -2.4916 N   0  0  0  0  0  0  0  0  0  0  0  0
    1.6237   -0.5971   -2.9714 C   0  0  2  0  0  0  0  0  0  0  0  0
    1.4137    0.4001   -2.5438 H   0  0  0  0  0  0  0  0  0  0  0  0
    0.4674   -1.5397   -2.5735 C   0  0  0  0  0  0  0  0  0  0  0  0
   -0.8847   -1.0257   -3.0153 C   0  0  0  0  0  0  0  0  0  0  0  0
   -1.5699   -1.6008   -4.0965 C   0  0  0  0  0  0  0  0  0  0  0  0
   -2.8069   -1.1038   -4.5156 C   0  0  0  0  0  0  0  0  0  0  0  0
   -3.3993   -0.0159   -3.8573 C   0  0  0  0  0  0  0  0  0  0  0  0
   -4.7835    0.4875   -4.1824 C   0  0  0  0  0  0  0  0  0  0  0  0
   -5.5687    0.7230   -3.2725 O   0  0  0  0  0  0  0  0  0  0  0  0
   -5.1389    0.6220   -5.5084 N   0  0  0  0  0  0  0  0  0  0  0  0
   -6.5282    0.9630   -5.8206 C   0  0  0  0  0  0  0  0  0  0  0  0
   -6.6616    2.4370   -6.2200 C   0  0  0  0  0  0  0  0  0  0  0  0
   -5.7005    2.8395   -7.3572 C   0  0  2  0  0  0  0  0  0  0  0  0
   -6.1868    2.4315   -8.6801 N   0  0  0  0  0  0  0  0  0  0  0  0
   -6.6294    3.2579   -9.6681 C   0  0  0  0  0  0  0  0  0  0  0  0
   -7.0124    2.4531  -10.7287 C   0  0  0  0  0  0  0  0  0  0  0  0
   -6.7590    1.1394  -10.2735 C   0  0  0  0  0  0  0  0  0  0  0  0
   -6.2629    1.1382   -9.0377 N   0  0  0  0  0  0  0  0  0  0  0  0
   -4.2738    2.3320   -7.0702 C   0  0  0  0  0  0  0  0  0  0  0  0
   -4.2129    0.8633   -6.6154 C   0  0  0  0  0  0  0  0  0  0  0  0
   -2.7360    0.5408   -2.7522 C   0  0  0  0  0  0  0  0  0  0  0  0
   -1.4949    0.0525   -2.3488 C   0  0  0  0  0  0  0  0  0  0  0  0
    1.8257   -0.4863   -4.4942 C   0  0  0  0  0  0  0  0  0  0  0  0
    3.3241   -0.2233   -4.6766 C   0  0  0  0  0  0  0  0  0  0  0  0
    3.9984   -0.9839   -3.5228 C   0  0  2  0  0  0  0  0  0  0  0  0
    4.8579   -0.4219   -3.1284 H   0  0  0  0  0  0  0  0  0  0  0  0
    4.6058   -2.3680   -3.8798 C   0  0  2  0  0  0  0  0  0  0  0  0
    5.0053   -2.7548   -2.9251 H   0  0  0  0  0  0  0  0  0  0  0  0
    5.6574   -2.0753   -4.7862 O   0  0  0  0  0  0  0  0  0  0  0  0
    3.6374   -3.3900   -4.4453 C   0  0  0  0  0  0  0  0  0  0  0  0
    3.4753   -3.5752   -5.8249 C   0  0  0  0  0  0  0  0  0  0  0  0
    2.5481   -4.5130   -6.2827 C   0  0  0  0  0  0  0  0  0  0  0  0
    1.8124   -5.2399   -5.3413 C   0  0  0  0  0  0  0  0  0  0  0  0
    1.9710   -5.0945   -4.0229 N   0  0  0  0  0  0  0  0  0  0  0  0
    2.8665   -4.2019   -3.5961 C   0  0  0  0  0  0  0  0  0  0  0  0
    3.5969    0.4688    2.5881 H   0  0  0  0  0  0  0  0  0  0  0  0
    3.2555    1.3508    1.0778 H   0  0  0  0  0  0  0  0  0  0  0  0
    4.5458    0.1132    1.1148 H   0  0  0  0  0  0  0  0  0  0  0  0
    2.9351   -2.0832    2.7240 H   0  0  0  0  0  0  0  0  0  0  0  0
    3.9064   -2.3758    1.2526 H   0  0  0  0  0  0  0  0  0  0  0  0
    2.1790   -2.8382    1.2986 H   0  0  0  0  0  0  0  0  0  0  0  0
    1.1318   -0.2364    2.7172 H   0  0  0  0  0  0  0  0  0  0  0  0
    0.3806   -1.0615    1.3250 H   0  0  0  0  0  0  0  0  0  0  0  0
    0.8225    0.6640    1.2075 H   0  0  0  0  0  0  0  0  0  0  0  0
    0.6525   -2.5338   -3.0081 H   0  0  0  0  0  0  0  0  0  0  0  0
    0.4756   -1.6522   -1.4809 H   0  0  0  0  0  0  0  0  0  0  0  0
   -1.1345   -2.4620   -4.6108 H   0  0  0  0  0  0  0  0  0  0  0  0
   -3.3269   -1.5859   -5.3470 H   0  0  0  0  0  0  0  0  0  0  0  0
   -7.1320    0.7565   -4.9294 H   0  0  0  0  0  0  0  0  0  0  0  0
   -6.8645    0.3195   -6.6483 H   0  0  0  0  0  0  0  0  0  0  0  0
   -6.4283    3.0610   -5.3410 H   0  0  0  0  0  0  0  0  0  0  0  0
   -7.6993    2.6621   -6.5142 H   0  0  0  0  0  0  0  0  0  0  0  0
   -5.6693    3.9382   -7.4126 H   0  0  0  0  0  0  0  0  0  0  0  0
   -6.6369    4.3391   -9.5445 H   0  0  0  0  0  0  0  0  0  0  0  0
   -7.4127    2.7701  -11.6886 H   0  0  0  0  0  0  0  0  0  0  0  0
   -6.9168    0.1958  -10.7959 H   0  0  0  0  0  0  0  0  0  0  0  0
   -3.8553    2.9640   -6.2682 H   0  0  0  0  0  0  0  0  0  0  0  0
   -3.6412    2.4747   -7.9611 H   0  0  0  0  0  0  0  0  0  0  0  0
   -3.1901    0.6265   -6.3025 H   0  0  0  0  0  0  0  0  0  0  0  0
   -4.4785    0.2057   -7.4573 H   0  0  0  0  0  0  0  0  0  0  0  0
   -3.2189    1.3528   -2.2044 H   0  0  0  0  0  0  0  0  0  0  0  0
   -0.9952    0.5018   -1.4855 H   0  0  0  0  0  0  0  0  0  0  0  0
    1.1927    0.2987   -4.9317 H   0  0  0  0  0  0  0  0  0  0  0  0
    1.5431   -1.4369   -4.9723 H   0  0  0  0  0  0  0  0  0  0  0  0
    3.5393    0.8519   -4.5686 H   0  0  0  0  0  0  0  0  0  0  0  0
    3.7105   -0.5311   -5.6580 H   0  0  0  0  0  0  0  0  0  0  0  0
    6.1960   -2.8697   -4.8947 H   0  0  0  0  0  0  0  0  0  0  0  0
    4.0825   -2.9922   -6.5210 H   0  0  0  0  0  0  0  0  0  0  0  0
    2.3975   -4.6824   -7.3518 H   0  0  0  0  0  0  0  0  0  0  0  0
    1.0710   -5.9791   -5.6679 H   0  0  0  0  0  0  0  0  0  0  0  0
    2.9912   -4.1181   -2.5097 H   0  0  0  0  0  0  0  0  0  0  0  0
  1  2  1  0
  1 44  1  0
  1 45  1  0
  1 46  1  0
  2  3  1  0
  2  4  1  0
  2  5  1  6
  3 47  1  0
  3 48  1  0
  3 49  1  0
  4 50  1  0
  4 51  1  0
  4 52  1  0
  5  6  1  0
  6  7  2  0
  6  8  1  0
  8  9  1  0
  8 33  1  0
  9 10  1  1
  9 11  1  0
  9 31  1  0
 11 12  1  0
 11 53  1  0
 11 54  1  0
 12 13  2  0
 12 30  1  0
 13 14  1  0
 13 55  1  0
 14 15  2  0
 14 56  1  0
 15 16  1  0
 15 29  1  0
 16 17  2  0
 16 18  1  0
 18 19  1  0
 18 28  1  0
 19 20  1  0
 19 57  1  0
 19 58  1  0
 20 21  1  0
 20 59  1  0
 20 60  1  0
 21 22  1  0
 21 27  1  0
 21 61  1  6
 22 23  1  0
 22 26  1  0
 23 24  2  0
 23 62  1  0
 24 25  1  0
 24 63  1  0
 25 26  2  0
 25 64  1  0
 27 28  1  0
 27 65  1  0
 27 66  1  0
 28 67  1  0
 28 68  1  0
 29 30  2  0
 29 69  1  0
 30 70  1  0
 31 32  1  0
 31 71  1  0
 31 72  1  0
 32 33  1  0
 32 73  1  0
 32 74  1  0
 33 34  1  1
 33 35  1  0
 35 36  1  1
 35 37  1  0
 35 38  1  0
 37 75  1  0
 38 39  2  0
 38 43  1  0
 39 40  1  0
 39 76  1  0
 40 41  2  0
 40 77  1  0
 41 42  1  0
 41 78  1  0
 42 43  2  0
 43 79  1  0
M  END

