
     RDKit          3D

 34 35  0  0  0  0  0  0  0  0999 V2000
    2.5340   -0.5813   -0.5758 C   0  0  0  0  0  0  0  0  0  0  0  0
    2.0209    0.0196    0.6067 O   0  0  0  0  0  0  0  0  0  0  0  0
    2.9290    0.5686    1.4645 C   0  0  0  0  0  0  0  0  0  0  0  0
    2.9635    1.9510    1.6301 C   0  0  0  0  0  0  0  0  0  0  0  0
    3.8342    2.5593    2.5507 C   0  0  0  0  0  0  0  0  0  0  0  0
    3.8988    4.0595    2.6802 C   0  0  0  0  0  0  0  0  0  0  0  0
    4.7810    4.6073    1.5868 N   0  0  0  0  0  0  0  0  0  0  0  0
    5.7346    5.2078    1.9938 O   0  0  0  0  0  0  0  0  0  0  0  0
    4.6955    1.7436    3.2912 C   0  0  0  0  0  0  0  0  0  0  0  0
    4.6729    0.3518    3.1450 C   0  0  0  0  0  0  0  0  0  0  0  0
    3.7905   -0.2494    2.2396 C   0  0  0  0  0  0  0  0  0  0  0  0
    3.6743   -1.5874    2.0424 O   0  0  0  0  0  0  0  0  0  0  0  0
    4.3883   -2.4885    2.8673 C   0  0  0  0  0  0  0  0  0  0  0  0
    3.9479   -3.9007    2.5616 C   0  0  0  0  0  0  0  0  0  0  0  0
    4.8287   -4.9720    2.7624 C   0  0  0  0  0  0  0  0  0  0  0  0
    4.4230   -6.2894    2.5388 C   0  0  0  0  0  0  0  0  0  0  0  0
    3.1199   -6.5371    2.0989 C   0  0  0  0  0  0  0  0  0  0  0  0
    2.6029   -8.1825    1.8081 Cl  0  0  0  0  0  0  0  0  0  0  0  0
    2.2282   -5.4823    1.8836 C   0  0  0  0  0  0  0  0  0  0  0  0
    2.6452   -4.1708    2.1186 C   0  0  0  0  0  0  0  0  0  0  0  0
    1.6663   -0.9251   -1.1560 H   0  0  0  0  0  0  0  0  0  0  0  0
    3.1814   -1.4433   -0.3491 H   0  0  0  0  0  0  0  0  0  0  0  0
    3.1000    0.1512   -1.1793 H   0  0  0  0  0  0  0  0  0  0  0  0
    2.2775    2.5482    1.0250 H   0  0  0  0  0  0  0  0  0  0  0  0
    4.2970    4.3894    3.6528 H   0  0  0  0  0  0  0  0  0  0  0  0
    2.9111    4.5146    2.4974 H   0  0  0  0  0  0  0  0  0  0  0  0
    5.3931    2.1926    4.0029 H   0  0  0  0  0  0  0  0  0  0  0  0
    5.3478   -0.2570    3.7469 H   0  0  0  0  0  0  0  0  0  0  0  0
    4.1905   -2.2516    3.9316 H   0  0  0  0  0  0  0  0  0  0  0  0
    5.4779   -2.3845    2.7080 H   0  0  0  0  0  0  0  0  0  0  0  0
    5.8531   -4.7814    3.0961 H   0  0  0  0  0  0  0  0  0  0  0  0
    5.1118   -7.1212    2.6946 H   0  0  0  0  0  0  0  0  0  0  0  0
    1.2155   -5.6913    1.5347 H   0  0  0  0  0  0  0  0  0  0  0  0
    1.9577   -3.3408    1.9460 H   0  0  0  0  0  0  0  0  0  0  0  0
  1  2  1  0
  1 21  1  0
  1 22  1  0
  1 23  1  0
  2  3  1  0
  3  4  2  0
  3 11  1  0
  4  5  1  0
  4 24  1  0
  5  6  1  0
  5  9  2  0
  6  7  1  0
  6 25  1  0
  6 26  1  0
  7  8  2  0
  9 10  1  0
  9 27  1  0
 10 11  2  0
 10 28  1  0
 11 12  1  0
 12 13  1  0
 13 14  1  0
 13 29  1  0
 13 30  1  0
 14 15  2  0
 14 20  1  0
 15 16  1  0
 15 31  1  0
 16 17  2  0
 16 32  1  0
 17 18  1  0
 17 19  1  0
 19 20  2  0
 19 33  1  0
 20 34  1  0
M  END

