
     RDKit          3D

 41 42  0  0  0  0  0  0  0  0999 V2000
    3.7936   -6.6898    1.6341 C   0  0  0  0  0  0  0  0  0  0  0  0
    4.1636   -5.7815    2.8128 C   0  0  1  0  0  0  0  0  0  0  0  0
    5.0672   -6.4873    3.8286 C   0  0  0  0  0  0  0  0  0  0  0  0
    4.7840   -4.5437    2.3465 N   0  0  0  0  0  0  0  0  0  0  0  0
    4.1716   -3.3286    2.4062 C   0  0  0  0  0  0  0  0  0  0  0  0
    3.0624   -3.1522    2.8850 O   0  0  0  0  0  0  0  0  0  0  0  0
    4.9643   -2.1522    1.7767 C   0  0  1  0  0  0  0  0  0  0  0  0
    4.6141   -0.8354    2.4818 C   0  0  0  0  0  0  0  0  0  0  0  0
    6.3996   -2.3859    1.6518 N   0  0  0  0  0  0  0  0  0  0  0  0
    7.2371   -2.3774    2.8446 C   0  0  0  0  0  0  0  0  0  0  0  0
    8.4973   -1.5445    2.6406 C   0  0  0  0  0  0  0  0  0  0  0  0
    9.2249   -1.9880    1.3958 C   0  0  0  0  0  0  0  0  0  0  0  0
   10.4905   -1.8323    1.2195 N   0  0  0  0  0  0  0  0  0  0  0  0
   11.1077   -1.2105    2.2962 O   0  0  0  0  0  0  0  0  0  0  0  0
    8.4294   -2.5988    0.3091 C   0  0  0  0  0  0  0  0  0  0  0  0
    9.0426   -2.9896   -0.8954 C   0  0  0  0  0  0  0  0  0  0  0  0
    8.3073   -3.4907   -1.9637 C   0  0  0  0  0  0  0  0  0  0  0  0
    6.9185   -3.6113   -1.8326 C   0  0  0  0  0  0  0  0  0  0  0  0
    6.2833   -3.2485   -0.6480 C   0  0  0  0  0  0  0  0  0  0  0  0
    7.0148   -2.7337    0.4490 C   0  0  0  0  0  0  0  0  0  0  0  0
    3.2913   -7.6043    1.9878 H   0  0  0  0  0  0  0  0  0  0  0  0
    4.6915   -6.9964    1.0704 H   0  0  0  0  0  0  0  0  0  0  0  0
    3.1134   -6.1728    0.9401 H   0  0  0  0  0  0  0  0  0  0  0  0
    3.2389   -5.4588    3.3145 H   0  0  0  0  0  0  0  0  0  0  0  0
    6.0251   -6.7879    3.3694 H   0  0  0  0  0  0  0  0  0  0  0  0
    4.5839   -7.3993    4.2133 H   0  0  0  0  0  0  0  0  0  0  0  0
    5.2888   -5.8297    4.6830 H   0  0  0  0  0  0  0  0  0  0  0  0
    5.6932   -4.5965    1.8999 H   0  0  0  0  0  0  0  0  0  0  0  0
    4.5682   -2.0646    0.7537 H   0  0  0  0  0  0  0  0  0  0  0  0
    4.9325   -0.8249    3.5349 H   0  0  0  0  0  0  0  0  0  0  0  0
    3.5241   -0.7064    2.4769 H   0  0  0  0  0  0  0  0  0  0  0  0
    5.0853    0.0111    1.9608 H   0  0  0  0  0  0  0  0  0  0  0  0
    7.5297   -3.4125    3.1163 H   0  0  0  0  0  0  0  0  0  0  0  0
    6.6557   -1.9862    3.6883 H   0  0  0  0  0  0  0  0  0  0  0  0
    9.1675   -1.6252    3.5082 H   0  0  0  0  0  0  0  0  0  0  0  0
    8.2354   -0.4753    2.5405 H   0  0  0  0  0  0  0  0  0  0  0  0
   12.0360   -1.1976    2.0303 H   0  0  0  0  0  0  0  0  0  0  0  0
   10.1242   -2.8679   -0.9718 H   0  0  0  0  0  0  0  0  0  0  0  0
    8.8066   -3.7833   -2.8900 H   0  0  0  0  0  0  0  0  0  0  0  0
    6.3196   -4.0082   -2.6566 H   0  0  0  0  0  0  0  0  0  0  0  0
    5.2063   -3.3948   -0.5653 H   0  0  0  0  0  0  0  0  0  0  0  0
  1  2  1  0
  1 21  1  0
  1 22  1  0
  1 23  1  0
  2  3  1  0
  2  4  1  0
  2 24  1  1
  3 25  1  0
  3 26  1  0
  3 27  1  0
  4  5  1  0
  4 28  1  0
  5  6  2  0
  5  7  1  0
  7  8  1  0
  7  9  1  0
  7 29  1  6
  8 30  1  0
  8 31  1  0
  8 32  1  0
  9 10  1  0
  9 20  1  0
 10 11  1  0
 10 33  1  0
 10 34  1  0
 11 12  1  0
 11 35  1  0
 11 36  1  0
 12 13  2  0
 12 15  1  0
 13 14  1  0
 14 37  1  0
 15 16  1  0
 15 20  2  0
 16 17  2  0
 16 38  1  0
 17 18  1  0
 17 39  1  0
 18 19  2  0
 18 40  1  0
 19 20  1  0
 19 41  1  0
M  END

