
     RDKit          3D

 32 32  0  0  0  0  0  0  0  0999 V2000
    1.2378    0.4719    0.0983 C   0  0  0  0  0  0  0  0  0  0  0  0
    2.7108    0.2477   -0.1453 C   0  0  0  0  0  0  0  0  0  0  0  0
    3.5452    1.3256   -0.5008 C   0  0  0  0  0  0  0  0  0  0  0  0
    4.9072    1.1304   -0.7275 C   0  0  0  0  0  0  0  0  0  0  0  0
    5.4629   -0.1445   -0.6038 C   0  0  0  0  0  0  0  0  0  0  0  0
    4.6585   -1.2437   -0.2503 C   0  0  0  0  0  0  0  0  0  0  0  0
    5.2876   -2.5604   -0.1329 C   0  0  0  0  0  0  0  0  0  0  0  0
    4.7077   -3.7350    0.1932 C   0  0  0  0  0  0  0  0  0  0  0  0
    5.5458   -4.9616    0.2689 C   0  0  0  0  0  0  0  0  0  0  0  0
    6.7529   -4.9343    0.0735 O   0  0  0  0  0  0  0  0  0  0  0  0
    4.9001   -6.1697    0.5557 N   0  0  0  0  0  0  0  0  0  0  0  0
    3.5008   -6.2691    0.9611 C   0  0  0  0  0  0  0  0  0  0  0  0
    5.7361   -7.3235    0.8579 C   0  0  0  0  0  0  0  0  0  0  0  0
    5.5401   -8.5023   -0.1018 C   0  0  0  0  0  0  0  0  0  0  0  0
    5.8253   -9.6313    0.1861 O   0  0  0  0  0  0  0  0  0  0  0  0
    5.0501   -8.1707   -1.3100 O   0  0  0  0  0  0  0  0  0  0  0  0
    3.2827   -1.0209   -0.0260 C   0  0  0  0  0  0  0  0  0  0  0  0
    0.7440    0.8869   -0.7962 H   0  0  0  0  0  0  0  0  0  0  0  0
    1.0741    1.1916    0.9177 H   0  0  0  0  0  0  0  0  0  0  0  0
    0.7225   -0.4627    0.3639 H   0  0  0  0  0  0  0  0  0  0  0  0
    3.1165    2.3272   -0.5996 H   0  0  0  0  0  0  0  0  0  0  0  0
    5.5414    1.9768   -1.0027 H   0  0  0  0  0  0  0  0  0  0  0  0
    6.5305   -0.2976   -0.7813 H   0  0  0  0  0  0  0  0  0  0  0  0
    6.3641   -2.5994   -0.3320 H   0  0  0  0  0  0  0  0  0  0  0  0
    3.6424   -3.7888    0.4150 H   0  0  0  0  0  0  0  0  0  0  0  0
    2.8448   -5.6936    0.2949 H   0  0  0  0  0  0  0  0  0  0  0  0
    3.3356   -5.9316    2.0004 H   0  0  0  0  0  0  0  0  0  0  0  0
    3.1837   -7.3194    0.8923 H   0  0  0  0  0  0  0  0  0  0  0  0
    5.5677   -7.6956    1.8815 H   0  0  0  0  0  0  0  0  0  0  0  0
    6.7856   -7.0022    0.7785 H   0  0  0  0  0  0  0  0  0  0  0  0
    4.8934   -7.2101   -1.3154 H   0  0  0  0  0  0  0  0  0  0  0  0
    2.6393   -1.8604    0.2491 H   0  0  0  0  0  0  0  0  0  0  0  0
  1  2  1  0
  1 18  1  0
  1 19  1  0
  1 20  1  0
  2  3  2  0
  2 17  1  0
  3  4  1  0
  3 21  1  0
  4  5  2  0
  4 22  1  0
  5  6  1  0
  5 23  1  0
  6  7  1  0
  6 17  2  0
  7  8  2  0
  7 24  1  0
  8  9  1  0
  8 25  1  0
  9 10  2  0
  9 11  1  0
 11 12  1  0
 11 13  1  0
 12 26  1  0
 12 27  1  0
 12 28  1  0
 13 14  1  0
 13 29  1  0
 13 30  1  0
 14 15  2  0
 14 16  1  0
 16 31  1  0
 17 32  1  0
M  END

