
     RDKit          3D

 51 53  0  0  0  0  0  0  0  0999 V2000
    0.9062   -0.0466    0.4029 C   0  0  0  0  0  0  0  0  0  0  0  0
    2.4037    0.0597    0.2425 C   0  0  0  0  0  0  0  0  0  0  0  0
    2.9986    1.0981   -0.4827 C   0  0  0  0  0  0  0  0  0  0  0  0
    4.3845    1.2026   -0.6169 C   0  0  0  0  0  0  0  0  0  0  0  0
    5.2249    0.2497   -0.0207 C   0  0  0  0  0  0  0  0  0  0  0  0
    6.6313    0.2826   -0.1319 N   0  0  0  0  0  0  0  0  0  0  0  0
    7.4230    1.2605   -0.7154 C   0  0  0  0  0  0  0  0  0  0  0  0
    6.9859    2.3183   -1.1399 O   0  0  0  0  0  0  0  0  0  0  0  0
    8.7793    0.9514   -0.7895 N   0  0  0  0  0  0  0  0  0  0  0  0
    9.3989   -0.3220   -0.4558 C   0  0  0  0  0  0  0  0  0  0  0  0
   10.4246   -0.7186   -1.5291 C   0  0  0  0  0  0  0  0  0  0  0  0
   11.3715    0.3622   -1.7966 N   0  0  0  0  0  0  0  0  0  0  0  0
   12.8629    0.3348   -1.0530 S   0  0  1  0  0  0  0  0  0  0  0  0
   13.3517    1.7051   -0.9245 O   0  0  0  0  0  0  0  0  0  0  0  0
   12.7660   -0.5513    0.1143 O   0  0  0  0  0  0  0  0  0  0  0  0
   14.0010   -0.5390   -2.1841 C   0  0  0  0  0  0  0  0  0  0  0  0
   14.3633   -1.8370   -1.8077 C   0  0  0  0  0  0  0  0  0  0  0  0
   15.3114   -2.5583   -2.5391 C   0  0  0  0  0  0  0  0  0  0  0  0
   15.9427   -1.9732   -3.6375 C   0  0  0  0  0  0  0  0  0  0  0  0
   15.6188   -0.6668   -4.0058 C   0  0  0  0  0  0  0  0  0  0  0  0
   14.6448    0.0344   -3.2947 C   0  0  0  0  0  0  0  0  0  0  0  0
   14.3228    1.3833   -3.8037 N   0  0  0  0  0  0  0  0  0  0  0  0
   13.1474    1.7023   -3.8264 O   0  0  0  0  0  0  0  0  0  0  0  0
   15.2492    2.0571   -4.2134 O   0  0  0  0  0  0  0  0  0  0  0  0
   10.7315    1.6408   -2.1395 C   0  0  0  0  0  0  0  0  0  0  0  0
    9.7163    2.0375   -1.0704 C   0  0  0  0  0  0  0  0  0  0  0  0
    4.6516   -0.8159    0.7199 C   0  0  0  0  0  0  0  0  0  0  0  0
    5.5196   -1.8662    1.3718 C   0  0  0  0  0  0  0  0  0  0  0  0
    3.2596   -0.8828    0.8319 C   0  0  0  0  0  0  0  0  0  0  0  0
    0.3817    0.6942   -0.2189 H   0  0  0  0  0  0  0  0  0  0  0  0
    0.5985    0.1218    1.4495 H   0  0  0  0  0  0  0  0  0  0  0  0
    0.5374   -1.0461    0.1178 H   0  0  0  0  0  0  0  0  0  0  0  0
    2.3677    1.8547   -0.9584 H   0  0  0  0  0  0  0  0  0  0  0  0
    4.8295    2.0238   -1.1728 H   0  0  0  0  0  0  0  0  0  0  0  0
    7.1100   -0.4401    0.3845 H   0  0  0  0  0  0  0  0  0  0  0  0
    8.6433   -1.1183   -0.4140 H   0  0  0  0  0  0  0  0  0  0  0  0
    9.9138   -0.2757    0.5237 H   0  0  0  0  0  0  0  0  0  0  0  0
    9.8992   -0.9440   -2.4735 H   0  0  0  0  0  0  0  0  0  0  0  0
   10.9638   -1.6198   -1.2109 H   0  0  0  0  0  0  0  0  0  0  0  0
   13.9087   -2.2606   -0.9117 H   0  0  0  0  0  0  0  0  0  0  0  0
   15.5691   -3.5742   -2.2313 H   0  0  0  0  0  0  0  0  0  0  0  0
   16.6953   -2.5250   -4.2048 H   0  0  0  0  0  0  0  0  0  0  0  0
   16.1095   -0.1716   -4.8442 H   0  0  0  0  0  0  0  0  0  0  0  0
   10.2377    1.5130   -3.1172 H   0  0  0  0  0  0  0  0  0  0  0  0
   11.5012    2.4116   -2.2470 H   0  0  0  0  0  0  0  0  0  0  0  0
    9.1306    2.9054   -1.3971 H   0  0  0  0  0  0  0  0  0  0  0  0
   10.2619    2.3104   -0.1457 H   0  0  0  0  0  0  0  0  0  0  0  0
    6.1237   -2.4250    0.6332 H   0  0  0  0  0  0  0  0  0  0  0  0
    4.9080   -2.6039    1.9098 H   0  0  0  0  0  0  0  0  0  0  0  0
    6.2211   -1.4316    2.1075 H   0  0  0  0  0  0  0  0  0  0  0  0
    2.8266   -1.7094    1.4050 H   0  0  0  0  0  0  0  0  0  0  0  0
  1  2  1  0
  1 30  1  0
  1 31  1  0
  1 32  1  0
  2  3  2  0
  2 29  1  0
  3  4  1  0
  3 33  1  0
  4  5  2  0
  4 34  1  0
  5  6  1  0
  5 27  1  0
  6  7  1  0
  6 35  1  0
  7  8  2  0
  7  9  1  0
  9 10  1  0
  9 26  1  0
 10 11  1  0
 10 36  1  0
 10 37  1  0
 11 12  1  0
 11 38  1  0
 11 39  1  0
 12 13  1  0
 12 25  1  0
 13 14  2  0
 13 15  2  0
 13 16  1  6
 16 17  2  0
 16 21  1  0
 17 18  1  0
 17 40  1  0
 18 19  2  0
 18 41  1  0
 19 20  1  0
 19 42  1  0
 20 21  2  0
 20 43  1  0
 21 22  1  0
 22 23  2  0
 22 24  1  0
 25 26  1  0
 25 44  1  0
 25 45  1  0
 26 46  1  0
 26 47  1  0
 27 28  1  0
 27 29  2  0
 28 48  1  0
 28 49  1  0
 28 50  1  0
 29 51  1  0
M  CHG  2  22   1  24  -1
M  END

