
     RDKit          3D

 21 21  0  0  0  0  0  0  0  0999 V2000
    0.9841    0.1828    0.1380 C   0  0  0  0  0  0  0  0  0  0  0  0
    2.4894    0.1863    0.0977 C   0  0  0  0  0  0  0  0  0  0  0  0
    3.2405    1.3653    0.0462 C   0  0  0  0  0  0  0  0  0  0  0  0
    4.6389    1.3166    0.0079 C   0  0  0  0  0  0  0  0  0  0  0  0
    5.6268    2.9450   -0.0670 Br  0  0  0  0  0  0  0  0  0  0  0  0
    5.3187    0.1022    0.0200 C   0  0  0  0  0  0  0  0  0  0  0  0
    4.5920   -1.0990    0.0772 C   0  0  0  0  0  0  0  0  0  0  0  0
    5.2553   -2.4482    0.0990 C   0  0  1  0  0  0  0  0  0  0  0  0
    6.2295   -2.8176   -1.5840 Br  0  0  0  0  0  0  0  0  0  0  0  0
    6.1946   -2.6651    1.2901 C   0  0  1  0  0  0  0  0  0  0  0  0
    5.5141   -2.4485    2.4284 F   0  0  0  0  0  0  0  0  0  0  0  0
    6.6521   -3.9204    1.3242 F   0  0  0  0  0  0  0  0  0  0  0  0
    7.2517   -1.8419    1.2844 F   0  0  0  0  0  0  0  0  0  0  0  0
    3.1961   -1.0229    0.1114 C   0  0  0  0  0  0  0  0  0  0  0  0
    2.4831   -2.1643    0.1615 F   0  0  0  0  0  0  0  0  0  0  0  0
    0.5873    1.2071    0.1179 H   0  0  0  0  0  0  0  0  0  0  0  0
    0.6119   -0.3150    1.0481 H   0  0  0  0  0  0  0  0  0  0  0  0
    0.5645   -0.3682   -0.7192 H   0  0  0  0  0  0  0  0  0  0  0  0
    2.7289    2.3295    0.0332 H   0  0  0  0  0  0  0  0  0  0  0  0
    6.4069    0.0766   -0.0227 H   0  0  0  0  0  0  0  0  0  0  0  0
    4.4987   -3.2369    0.1619 H   0  0  0  0  0  0  0  0  0  0  0  0
  1  2  1  0
  1 16  1  0
  1 17  1  0
  1 18  1  0
  2  3  2  0
  2 14  1  0
  3  4  1  0
  3 19  1  0
  4  5  1  0
  4  6  2  0
  6  7  1  0
  6 20  1  0
  7  8  1  0
  7 14  2  0
  8  9  1  0
  8 10  1  0
  8 21  1  1
 10 11  1  1
 10 12  1  0
 10 13  1  0
 14 15  1  0
M  END

