
     RDKit          3D

 43 45  0  0  0  0  0  0  0  0999 V2000
    1.3280    0.2599   -0.6955 C   0  0  0  0  0  0  0  0  0  0  0  0
    2.3711   -0.0883    0.1845 O   0  0  0  0  0  0  0  0  0  0  0  0
    2.7908    0.8337    1.0997 C   0  0  0  0  0  0  0  0  0  0  0  0
    2.2877    2.1212    1.2667 C   0  0  0  0  0  0  0  0  0  0  0  0
    2.8049    2.9967    2.2641 C   0  0  0  0  0  0  0  0  0  0  0  0
    2.2081    4.3792    2.3957 C   0  0  0  0  0  0  0  0  0  0  0  0
    3.8356    2.5772    3.0992 C   0  0  0  0  0  0  0  0  0  0  0  0
    4.3696    1.2775    2.9435 C   0  0  0  0  0  0  0  0  0  0  0  0
    5.4164    0.5296    3.6049 C   0  0  0  0  0  0  0  0  0  0  0  0
    6.3104    1.0514    4.6929 C   0  0  0  0  0  0  0  0  0  0  0  0
    5.5917    1.6022    5.8393 N   0  0  0  0  0  0  0  0  0  0  0  0
    6.4679    2.3193    6.7554 C   0  0  0  0  0  0  0  0  0  0  0  0
    5.6580    2.9926    7.8613 C   0  0  0  0  0  0  0  0  0  0  0  0
    4.8638    1.9909    8.5571 N   0  0  0  0  0  0  0  0  0  0  0  0
    3.9622    1.2970    7.6471 C   0  0  0  0  0  0  0  0  0  0  0  0
    4.7729    0.6230    6.5432 C   0  0  0  0  0  0  0  0  0  0  0  0
    5.4657   -0.7179    3.0005 C   0  0  0  0  0  0  0  0  0  0  0  0
    6.3483   -1.8981    3.2548 C   0  0  0  0  0  0  0  0  0  0  0  0
    4.5107   -0.7696    2.0012 N   0  0  0  0  0  0  0  0  0  0  0  0
    4.3255   -1.5570    1.3952 H   0  0  0  0  0  0  0  0  0  0  0  0
    3.8357    0.4276    1.9493 C   0  0  0  0  0  0  0  0  0  0  0  0
    1.1501   -0.6133   -1.3382 H   0  0  0  0  0  0  0  0  0  0  0  0
    1.5977    1.1234   -1.3306 H   0  0  0  0  0  0  0  0  0  0  0  0
    0.3960    0.5011   -0.1525 H   0  0  0  0  0  0  0  0  0  0  0  0
    1.4774    2.4784    0.6290 H   0  0  0  0  0  0  0  0  0  0  0  0
    1.1260    4.3356    2.6091 H   0  0  0  0  0  0  0  0  0  0  0  0
    2.3260    4.9617    1.4654 H   0  0  0  0  0  0  0  0  0  0  0  0
    2.6863    4.9468    3.2076 H   0  0  0  0  0  0  0  0  0  0  0  0
    4.2212    3.2312    3.8832 H   0  0  0  0  0  0  0  0  0  0  0  0
    6.9357    1.8691    4.2896 H   0  0  0  0  0  0  0  0  0  0  0  0
    7.0229    0.2539    5.0083 H   0  0  0  0  0  0  0  0  0  0  0  0
    7.0286    3.0819    6.1894 H   0  0  0  0  0  0  0  0  0  0  0  0
    7.2158    1.6375    7.2251 H   0  0  0  0  0  0  0  0  0  0  0  0
    5.0377    3.7935    7.3981 H   0  0  0  0  0  0  0  0  0  0  0  0
    6.3454    3.4749    8.5760 H   0  0  0  0  0  0  0  0  0  0  0  0
    4.3488    2.4096    9.3289 H   0  0  0  0  0  0  0  0  0  0  0  0
    3.2219    1.9766    7.1682 H   0  0  0  0  0  0  0  0  0  0  0  0
    3.3994    0.5315    8.2064 H   0  0  0  0  0  0  0  0  0  0  0  0
    4.0949    0.1413    5.8225 H   0  0  0  0  0  0  0  0  0  0  0  0
    5.4032   -0.1764    7.0002 H   0  0  0  0  0  0  0  0  0  0  0  0
    6.9750   -1.7373    4.1417 H   0  0  0  0  0  0  0  0  0  0  0  0
    7.0219   -2.0972    2.4023 H   0  0  0  0  0  0  0  0  0  0  0  0
    5.7562   -2.8143    3.4241 H   0  0  0  0  0  0  0  0  0  0  0  0
  1  2  1  0
  1 22  1  0
  1 23  1  0
  1 24  1  0
  2  3  1  0
  3  4  2  0
  3 21  1  0
  4  5  1  0
  4 25  1  0
  5  6  1  0
  5  7  2  0
  6 26  1  0
  6 27  1  0
  6 28  1  0
  7  8  1  0
  7 29  1  0
  8  9  1  0
  8 21  2  0
  9 10  1  0
  9 17  2  0
 10 11  1  0
 10 30  1  0
 10 31  1  0
 11 12  1  0
 11 16  1  0
 12 13  1  0
 12 32  1  0
 12 33  1  0
 13 14  1  0
 13 34  1  0
 13 35  1  0
 14 15  1  0
 14 36  1  0
 15 16  1  0
 15 37  1  0
 15 38  1  0
 16 39  1  0
 16 40  1  0
 17 18  1  0
 17 19  1  0
 18 41  1  0
 18 42  1  0
 18 43  1  0
 19 20  1  0
 19 21  1  0
M  END

