
     RDKit          3D

 40 41  0  0  0  0  0  0  0  0999 V2000
    3.6516   -0.1316    2.5207 C   0  0  0  0  0  0  0  0  0  0  0  0
    3.4458    0.3093    1.1985 O   0  0  0  0  0  0  0  0  0  0  0  0
    3.5758   -0.5741    0.1753 C   0  0  0  0  0  0  0  0  0  0  0  0
    3.3508   -0.0645   -1.1158 C   0  0  0  0  0  0  0  0  0  0  0  0
    3.4572   -0.8974   -2.2248 C   0  0  0  0  0  0  0  0  0  0  0  0
    3.7935   -2.2553   -2.0879 C   0  0  0  0  0  0  0  0  0  0  0  0
    3.9679   -3.1415   -3.3105 C   0  0  1  0  0  0  0  0  0  0  0  0
    5.4067   -3.1480   -3.8348 C   0  0  0  0  0  0  0  0  0  0  0  0
    5.4840   -3.9167   -5.0684 N   0  0  0  0  0  0  0  0  0  0  0  0
    3.6340   -4.4997   -3.0396 O   0  0  0  0  0  0  0  0  0  0  0  0
    2.2593   -4.8215   -3.1059 C   0  0  0  0  0  0  0  0  0  0  0  0
    1.8567   -5.3021   -4.5133 C   0  0  0  0  0  0  0  0  0  0  0  0
    0.3988   -5.6370   -4.6362 C   0  0  0  0  0  0  0  0  0  0  0  0
   -0.2392   -7.1345   -3.9984 S   0  0  0  0  0  0  0  0  0  0  0  0
   -1.8299   -6.6422   -4.5071 C   0  0  0  0  0  0  0  0  0  0  0  0
   -1.8829   -5.4859   -5.0891 N   0  0  0  0  0  0  0  0  0  0  0  0
   -0.6382   -4.8973   -5.1697 C   0  0  0  0  0  0  0  0  0  0  0  0
   -0.5333   -3.5464   -5.8166 C   0  0  0  0  0  0  0  0  0  0  0  0
    4.0126   -2.7513   -0.7985 C   0  0  0  0  0  0  0  0  0  0  0  0
    3.9057   -1.9292    0.3293 C   0  0  0  0  0  0  0  0  0  0  0  0
    3.4960    0.7406    3.1701 H   0  0  0  0  0  0  0  0  0  0  0  0
    4.6780   -0.5119    2.6742 H   0  0  0  0  0  0  0  0  0  0  0  0
    2.9352   -0.9226    2.8084 H   0  0  0  0  0  0  0  0  0  0  0  0
    3.0854    0.9897   -1.2181 H   0  0  0  0  0  0  0  0  0  0  0  0
    3.2711   -0.4842   -3.2212 H   0  0  0  0  0  0  0  0  0  0  0  0
    3.3323   -2.7561   -4.1307 H   0  0  0  0  0  0  0  0  0  0  0  0
    6.0614   -3.5109   -3.0130 H   0  0  0  0  0  0  0  0  0  0  0  0
    5.7018   -2.1048   -4.0355 H   0  0  0  0  0  0  0  0  0  0  0  0
    5.2618   -4.8906   -4.8609 H   0  0  0  0  0  0  0  0  0  0  0  0
    6.4334   -3.9051   -5.4397 H   0  0  0  0  0  0  0  0  0  0  0  0
    1.6335   -3.9623   -2.8030 H   0  0  0  0  0  0  0  0  0  0  0  0
    2.0757   -5.6260   -2.3744 H   0  0  0  0  0  0  0  0  0  0  0  0
    2.4782   -6.1769   -4.7670 H   0  0  0  0  0  0  0  0  0  0  0  0
    2.1141   -4.5224   -5.2467 H   0  0  0  0  0  0  0  0  0  0  0  0
   -2.6948   -7.2878   -4.3350 H   0  0  0  0  0  0  0  0  0  0  0  0
   -0.9644   -3.5746   -6.8302 H   0  0  0  0  0  0  0  0  0  0  0  0
    0.5055   -3.1977   -5.8901 H   0  0  0  0  0  0  0  0  0  0  0  0
   -1.1083   -2.7992   -5.2453 H   0  0  0  0  0  0  0  0  0  0  0  0
    4.2603   -3.8079   -0.6741 H   0  0  0  0  0  0  0  0  0  0  0  0
    4.0792   -2.3559    1.3175 H   0  0  0  0  0  0  0  0  0  0  0  0
  1  2  1  0
  1 21  1  0
  1 22  1  0
  1 23  1  0
  2  3  1  0
  3  4  2  0
  3 20  1  0
  4  5  1  0
  4 24  1  0
  5  6  2  0
  5 25  1  0
  6  7  1  0
  6 19  1  0
  7  8  1  0
  7 10  1  0
  7 26  1  6
  8  9  1  0
  8 27  1  0
  8 28  1  0
  9 29  1  0
  9 30  1  0
 10 11  1  0
 11 12  1  0
 11 31  1  0
 11 32  1  0
 12 13  1  0
 12 33  1  0
 12 34  1  0
 13 14  1  0
 13 17  2  0
 14 15  1  0
 15 16  2  0
 15 35  1  0
 16 17  1  0
 17 18  1  0
 18 36  1  0
 18 37  1  0
 18 38  1  0
 19 20  2  0
 19 39  1  0
 20 40  1  0
M  END

