
     RDKit          3D

100107  0  0  0  0  0  0  0  0999 V2000
    1.8711   -0.2899    1.3209 C   0  0  0  0  0  0  0  0  0  0  0  0
    2.9225   -1.0690    0.5286 C   0  0  0  0  0  0  0  0  0  0  0  0
    3.6445   -2.1754    1.3202 C   0  0  1  0  0  0  0  0  0  0  0  0
    2.7220   -3.3027    1.8379 C   0  0  0  0  0  0  0  0  0  0  0  0
    1.9579   -4.1001    0.7752 C   0  0  0  0  0  0  0  0  0  0  0  0
    4.8123   -2.7540    0.5119 C   0  0  0  0  0  0  0  0  0  0  0  0
    5.8115   -1.7687    0.1932 O   0  0  0  0  0  0  0  0  0  0  0  0
    6.7737   -1.5375    1.1197 C   0  0  0  0  0  0  0  0  0  0  0  0
    6.8034   -0.5082    2.0458 C   0  0  0  0  0  0  0  0  0  0  0  0
    8.0215   -0.6282    2.7629 C   0  0  0  0  0  0  0  0  0  0  0  0
    8.5676    0.1995    3.7771 C   0  0  0  0  0  0  0  0  0  0  0  0
    7.8879    1.2016    4.5032 C   0  0  0  0  0  0  0  0  0  0  0  0
    6.4908    1.4483    4.6100 C   0  0  0  0  0  0  0  0  0  0  0  0
    6.3413    2.5004    5.4946 C   0  0  0  0  0  0  0  0  0  0  0  0
    5.2305    3.0987    5.9471 O   0  0  0  0  0  0  0  0  0  0  0  0
    3.9750    2.6186    5.4725 C   0  0  0  0  0  0  0  0  0  0  0  0
    2.8474    3.4596    6.0698 C   0  0  1  0  0  0  0  0  0  0  0  0
    2.9801    4.9593    5.7237 C   0  0  0  0  0  0  0  0  0  0  0  0
    2.8126    5.3295    4.2471 C   0  0  0  0  0  0  0  0  0  0  0  0
    1.4923    2.8314    5.6858 C   0  0  0  0  0  0  0  0  0  0  0  0
    0.2732    3.4962    6.3282 C   0  0  0  0  0  0  0  0  0  0  0  0
    7.6510    2.9204    5.9238 C   0  0  0  0  0  0  0  0  0  0  0  0
    7.9322    4.0378    6.7949 C   0  0  0  0  0  0  0  0  0  0  0  0
    9.0879    4.8038    6.9044 C   0  0  0  0  0  0  0  0  0  0  0  0
    8.9929    5.8266    7.8784 C   0  0  0  0  0  0  0  0  0  0  0  0
    7.7718    5.8454    8.5137 C   0  0  0  0  0  0  0  0  0  0  0  0
    6.7110    4.6294    7.9194 S   0  0  0  0  0  0  0  0  0  0  0  0
    8.5649    2.1004    5.3320 N   0  0  0  0  0  0  0  0  0  0  0  0
   10.1260    2.1021    5.5694 B   0  0  2  0  0  0  0  0  0  0  0  0
   10.4196    2.1092    6.9158 F   0  0  0  0  0  0  0  0  0  0  0  0
   10.7158    3.1739    4.9094 F   0  0  0  0  0  0  0  0  0  0  0  0
   10.6584    0.7752    4.9393 N   0  0  0  0  0  0  0  0  0  0  0  0
    9.9603   -0.0107    4.1063 C   0  0  0  0  0  0  0  0  0  0  0  0
   10.7023   -1.0164    3.6196 N   0  0  0  0  0  0  0  0  0  0  0  0
   11.9706   -0.8817    4.1615 C   0  0  0  0  0  0  0  0  0  0  0  0
   13.1321   -1.6409    3.9912 C   0  0  0  0  0  0  0  0  0  0  0  0
   14.2858   -1.2607    4.6866 C   0  0  0  0  0  0  0  0  0  0  0  0
   15.5774   -2.0867    4.5055 C   0  0  1  0  0  0  0  0  0  0  0  0
   16.0001   -2.0535    3.0181 C   0  0  0  0  0  0  0  0  0  0  0  0
   16.7457   -1.5440    5.3487 C   0  0  0  0  0  0  0  0  0  0  0  0
   15.3139   -3.5495    4.9327 C   0  0  0  0  0  0  0  0  0  0  0  0
   14.2303   -0.1210    5.5358 C   0  0  0  0  0  0  0  0  0  0  0  0
   13.0821    0.6467    5.7094 C   0  0  0  0  0  0  0  0  0  0  0  0
   11.9402    0.2548    5.0040 C   0  0  0  0  0  0  0  0  0  0  0  0
   10.1559   -2.1778    2.7240 B   0  0  1  0  0  0  0  0  0  0  0  0
   10.9999   -2.3406    1.6458 F   0  0  0  0  0  0  0  0  0  0  0  0
   10.0586   -3.3319    3.4828 F   0  0  0  0  0  0  0  0  0  0  0  0
    8.7251   -1.7214    2.2527 N   0  0  0  0  0  0  0  0  0  0  0  0
    7.9839   -2.2983    1.2673 C   0  0  0  0  0  0  0  0  0  0  0  0
    8.3174   -3.4701    0.4794 C   0  0  0  0  0  0  0  0  0  0  0  0
    7.8975   -3.6904   -0.8283 C   0  0  0  0  0  0  0  0  0  0  0  0
    8.2963   -4.9485   -1.3444 C   0  0  0  0  0  0  0  0  0  0  0  0
    8.9989   -5.6917   -0.4231 C   0  0  0  0  0  0  0  0  0  0  0  0
    9.1995   -4.8651    1.0721 S   0  0  0  0  0  0  0  0  0  0  0  0
    1.4517    0.5322    0.7193 H   0  0  0  0  0  0  0  0  0  0  0  0
    2.3041    0.1560    2.2329 H   0  0  0  0  0  0  0  0  0  0  0  0
    1.0282   -0.9258    1.6361 H   0  0  0  0  0  0  0  0  0  0  0  0
    3.6888   -0.3712    0.1532 H   0  0  0  0  0  0  0  0  0  0  0  0
    2.4570   -1.5068   -0.3727 H   0  0  0  0  0  0  0  0  0  0  0  0
    4.0894   -1.7069    2.2186 H   0  0  0  0  0  0  0  0  0  0  0  0
    1.9982   -2.8655    2.5461 H   0  0  0  0  0  0  0  0  0  0  0  0
    3.3331   -3.9984    2.4400 H   0  0  0  0  0  0  0  0  0  0  0  0
    1.2838   -3.4612    0.1826 H   0  0  0  0  0  0  0  0  0  0  0  0
    1.3366   -4.8769    1.2486 H   0  0  0  0  0  0  0  0  0  0  0  0
    2.6330   -4.6118    0.0703 H   0  0  0  0  0  0  0  0  0  0  0  0
    4.4660   -3.1349   -0.4609 H   0  0  0  0  0  0  0  0  0  0  0  0
    5.2824   -3.5915    1.0553 H   0  0  0  0  0  0  0  0  0  0  0  0
    6.0601    0.2750    2.1481 H   0  0  0  0  0  0  0  0  0  0  0  0
    5.7061    0.8740    4.1332 H   0  0  0  0  0  0  0  0  0  0  0  0
    3.8595    1.5588    5.7655 H   0  0  0  0  0  0  0  0  0  0  0  0
    3.9644    2.6609    4.3673 H   0  0  0  0  0  0  0  0  0  0  0  0
    2.9512    3.3764    7.1675 H   0  0  0  0  0  0  0  0  0  0  0  0
    3.9674    5.2998    6.0737 H   0  0  0  0  0  0  0  0  0  0  0  0
    2.2429    5.5192    6.3231 H   0  0  0  0  0  0  0  0  0  0  0  0
    3.5589    4.8328    3.6056 H   0  0  0  0  0  0  0  0  0  0  0  0
    2.9423    6.4141    4.1057 H   0  0  0  0  0  0  0  0  0  0  0  0
    1.8146    5.0684    3.8590 H   0  0  0  0  0  0  0  0  0  0  0  0
    1.5094    1.7659    5.9764 H   0  0  0  0  0  0  0  0  0  0  0  0
    1.3769    2.8364    4.5869 H   0  0  0  0  0  0  0  0  0  0  0  0
    0.3627    3.5193    7.4271 H   0  0  0  0  0  0  0  0  0  0  0  0
   -0.6488    2.9464    6.0817 H   0  0  0  0  0  0  0  0  0  0  0  0
    0.1366    4.5337    5.9852 H   0  0  0  0  0  0  0  0  0  0  0  0
    9.9616    4.6366    6.2790 H   0  0  0  0  0  0  0  0  0  0  0  0
    9.7981    6.5287    8.0989 H   0  0  0  0  0  0  0  0  0  0  0  0
    7.4350    6.5220    9.2987 H   0  0  0  0  0  0  0  0  0  0  0  0
   13.1176   -2.4968    3.3171 H   0  0  0  0  0  0  0  0  0  0  0  0
   16.1967   -1.0217    2.6860 H   0  0  0  0  0  0  0  0  0  0  0  0
   15.2244   -2.4742    2.3606 H   0  0  0  0  0  0  0  0  0  0  0  0
   16.9206   -2.6413    2.8676 H   0  0  0  0  0  0  0  0  0  0  0  0
   17.0107   -0.5116    5.0719 H   0  0  0  0  0  0  0  0  0  0  0  0
   17.6391   -2.1672    5.1868 H   0  0  0  0  0  0  0  0  0  0  0  0
   16.5212   -1.5643    6.4267 H   0  0  0  0  0  0  0  0  0  0  0  0
   14.5175   -4.0160    4.3335 H   0  0  0  0  0  0  0  0  0  0  0  0
   15.0120   -3.6041    5.9908 H   0  0  0  0  0  0  0  0  0  0  0  0
   16.2257   -4.1562    4.8066 H   0  0  0  0  0  0  0  0  0  0  0  0
   15.1226    0.1780    6.0846 H   0  0  0  0  0  0  0  0  0  0  0  0
   13.0661    1.5113    6.3730 H   0  0  0  0  0  0  0  0  0  0  0  0
    7.3292   -2.9471   -1.3859 H   0  0  0  0  0  0  0  0  0  0  0  0
    8.0775   -5.2907   -2.3569 H   0  0  0  0  0  0  0  0  0  0  0  0
    9.4212   -6.6882   -0.5490 H   0  0  0  0  0  0  0  0  0  0  0  0
  1  2  1  0
  1 55  1  0
  1 56  1  0
  1 57  1  0
  2  3  1  0
  2 58  1  0
  2 59  1  0
  3  4  1  0
  3  6  1  0
  3 60  1  1
  4  5  1  0
  4 61  1  0
  4 62  1  0
  5 63  1  0
  5 64  1  0
  5 65  1  0
  6  7  1  0
  6 66  1  0
  6 67  1  0
  7  8  1  0
  8  9  1  0
  8 49  2  0
  9 10  2  0
  9 68  1  0
 10 11  1  0
 10 48  1  0
 11 12  2  0
 11 33  1  0
 12 13  1  0
 12 28  1  0
 13 14  2  0
 13 69  1  0
 14 15  1  0
 14 22  1  0
 15 16  1  0
 16 17  1  0
 16 70  1  0
 16 71  1  0
 17 18  1  0
 17 20  1  0
 17 72  1  1
 18 19  1  0
 18 73  1  0
 18 74  1  0
 19 75  1  0
 19 76  1  0
 19 77  1  0
 20 21  1  0
 20 78  1  0
 20 79  1  0
 21 80  1  0
 21 81  1  0
 21 82  1  0
 22 23  2  0
 22 28  1  0
 23 24  1  0
 23 27  1  0
 24 25  2  0
 24 83  1  0
 25 26  1  0
 25 84  1  0
 26 27  2  0
 26 85  1  0
 28 29  1  0
 29 30  1  1
 29 31  1  0
 29 32  1  0
 32 33  1  0
 32 44  1  0
 33 34  2  0
 34 35  1  0
 34 45  1  0
 35 36  1  0
 35 44  2  0
 36 37  2  0
 36 86  1  0
 37 38  1  0
 37 42  1  0
 38 39  1  6
 38 40  1  0
 38 41  1  0
 39 87  1  0
 39 88  1  0
 39 89  1  0
 40 90  1  0
 40 91  1  0
 40 92  1  0
 41 93  1  0
 41 94  1  0
 41 95  1  0
 42 43  2  0
 42 96  1  0
 43 44  1  0
 43 97  1  0
 45 46  1  6
 45 47  1  0
 45 48  1  0
 48 49  1  0
 49 50  1  0
 50 51  2  0
 50 54  1  0
 51 52  1  0
 51 98  1  0
 52 53  2  0
 52 99  1  0
 53 54  1  0
 53100  1  0
M  CHG  4  27   1  29  -1  34   1  45  -1
M  END

