
     RDKit          3D

 37 39  0  0  0  0  0  0  0  0999 V2000
   -0.0285    0.9151   -1.9294 C   0  0  0  0  0  0  0  0  0  0  0  0
    0.8923    0.1677   -2.8980 C   0  0  1  0  0  0  0  0  0  0  0  0
    2.3551    0.2932   -2.3937 C   0  0  0  0  0  0  0  0  0  0  0  0
    2.5602    0.5562   -1.2147 O   0  0  0  0  0  0  0  0  0  0  0  0
    3.3920    0.0374   -3.2462 N   0  0  0  0  0  0  0  0  0  0  0  0
    4.7863    0.2109   -2.8031 C   0  0  1  0  0  0  0  0  0  0  0  0
    5.5192   -0.8890   -3.6015 C   0  0  0  0  0  0  0  0  0  0  0  0
    4.6518   -1.0832   -4.8756 C   0  0  0  0  0  0  0  0  0  0  0  0
    3.4866   -0.0772   -4.7109 C   0  0  2  0  0  0  0  0  0  0  0  0
    3.7791    1.3292   -5.2735 C   0  0  0  0  0  0  0  0  0  0  0  0
    5.0098    2.0028   -4.6424 C   0  0  2  0  0  0  0  0  0  0  0  0
    6.5353    1.6198   -5.6135 Cl  0  0  0  0  0  0  0  0  0  0  0  0
    5.2078    1.6511   -3.1572 C   0  0  0  0  0  0  0  0  0  0  0  0
    0.4724   -1.3111   -3.0822 C   0  0  0  0  0  0  0  0  0  0  0  0
   -0.5998   -1.2174   -4.1760 C   0  0  0  0  0  0  0  0  0  0  0  0
   -0.0921   -0.0530   -5.0399 C   0  0  0  0  0  0  0  0  0  0  0  0
    0.7583    0.7377   -4.2104 O   0  0  0  0  0  0  0  0  0  0  0  0
    0.1063    0.5495   -0.9036 H   0  0  0  0  0  0  0  0  0  0  0  0
   -1.0800    0.7906   -2.2296 H   0  0  0  0  0  0  0  0  0  0  0  0
    0.2088    1.9886   -1.9421 H   0  0  0  0  0  0  0  0  0  0  0  0
    4.8399    0.0727   -1.7170 H   0  0  0  0  0  0  0  0  0  0  0  0
    5.5503   -1.8149   -3.0081 H   0  0  0  0  0  0  0  0  0  0  0  0
    6.5534   -0.6046   -3.8359 H   0  0  0  0  0  0  0  0  0  0  0  0
    4.2501   -2.1069   -4.9198 H   0  0  0  0  0  0  0  0  0  0  0  0
    5.2134   -0.9031   -5.8019 H   0  0  0  0  0  0  0  0  0  0  0  0
    2.5570   -0.4504   -5.1477 H   0  0  0  0  0  0  0  0  0  0  0  0
    2.8945    1.9466   -5.0478 H   0  0  0  0  0  0  0  0  0  0  0  0
    3.8886    1.3062   -6.3686 H   0  0  0  0  0  0  0  0  0  0  0  0
    4.9335    3.0911   -4.7577 H   0  0  0  0  0  0  0  0  0  0  0  0
    4.5719    2.3285   -2.5616 H   0  0  0  0  0  0  0  0  0  0  0  0
    6.2492    1.8498   -2.8618 H   0  0  0  0  0  0  0  0  0  0  0  0
    0.1111   -1.7581   -2.1452 H   0  0  0  0  0  0  0  0  0  0  0  0
    1.3304   -1.9088   -3.4293 H   0  0  0  0  0  0  0  0  0  0  0  0
   -1.5817   -0.9811   -3.7384 H   0  0  0  0  0  0  0  0  0  0  0  0
   -0.7105   -2.1495   -4.7499 H   0  0  0  0  0  0  0  0  0  0  0  0
   -0.9088    0.5751   -5.4338 H   0  0  0  0  0  0  0  0  0  0  0  0
    0.4900   -0.4193   -5.9079 H   0  0  0  0  0  0  0  0  0  0  0  0
  1  2  1  0
  1 18  1  0
  1 19  1  0
  1 20  1  0
  2  3  1  1
  2 14  1  0
  2 17  1  0
  3  4  2  0
  3  5  1  0
  5  6  1  0
  5  9  1  0
  6  7  1  0
  6 13  1  0
  6 21  1  1
  7  8  1  0
  7 22  1  0
  7 23  1  0
  8  9  1  0
  8 24  1  0
  8 25  1  0
  9 10  1  0
  9 26  1  6
 10 11  1  0
 10 27  1  0
 10 28  1  0
 11 12  1  0
 11 13  1  0
 11 29  1  1
 13 30  1  0
 13 31  1  0
 14 15  1  0
 14 32  1  0
 14 33  1  0
 15 16  1  0
 15 34  1  0
 15 35  1  0
 16 17  1  0
 16 36  1  0
 16 37  1  0
M  END

