
     RDKit          3D

 20 21  0  0  0  0  0  0  0  0999 V2000
    1.2587    0.2252    0.7484 Cl  0  0  0  0  0  0  0  0  0  0  0  0
    2.9170    0.1697    0.0202 C   0  0  0  0  0  0  0  0  0  0  0  0
    3.1527   -1.0764   -0.7994 C   0  0  0  0  0  0  0  0  0  0  0  0
    2.8726   -2.3690   -0.2645 C   0  0  0  0  0  0  0  0  0  0  0  0
    3.1468   -3.4773   -1.0298 C   0  0  0  0  0  0  0  0  0  0  0  0
    3.6971   -3.3137   -2.3297 C   0  0  0  0  0  0  0  0  0  0  0  0
    4.0111   -4.3962   -3.1945 C   0  0  0  0  0  0  0  0  0  0  0  0
    4.5416   -4.1700   -4.4467 C   0  0  0  0  0  0  0  0  0  0  0  0
    4.7763   -2.8386   -4.8773 C   0  0  0  0  0  0  0  0  0  0  0  0
    5.4498   -2.5841   -6.4693 Cl  0  0  0  0  0  0  0  0  0  0  0  0
    4.4852   -1.7587   -4.0701 C   0  0  0  0  0  0  0  0  0  0  0  0
    3.9385   -1.9740   -2.7760 C   0  0  0  0  0  0  0  0  0  0  0  0
    3.6576   -0.8898   -2.0003 N   0  0  0  0  0  0  0  0  0  0  0  0
    3.6230    0.2320    0.8615 H   0  0  0  0  0  0  0  0  0  0  0  0
    3.0373    1.0494   -0.6219 H   0  0  0  0  0  0  0  0  0  0  0  0
    2.4353   -2.4581    0.7313 H   0  0  0  0  0  0  0  0  0  0  0  0
    2.9458   -4.4839   -0.6524 H   0  0  0  0  0  0  0  0  0  0  0  0
    3.8268   -5.4194   -2.8562 H   0  0  0  0  0  0  0  0  0  0  0  0
    4.7848   -4.9977   -5.1146 H   0  0  0  0  0  0  0  0  0  0  0  0
    4.6627   -0.7339   -4.3962 H   0  0  0  0  0  0  0  0  0  0  0  0
  1  2  1  0
  2  3  1  0
  2 14  1  0
  2 15  1  0
  3  4  2  0
  3 13  1  0
  4  5  1  0
  4 16  1  0
  5  6  2  0
  5 17  1  0
  6  7  1  0
  6 12  1  0
  7  8  2  0
  7 18  1  0
  8  9  1  0
  8 19  1  0
  9 10  1  0
  9 11  2  0
 11 12  1  0
 11 20  1  0
 12 13  2  0
M  END

