
     RDKit          3D

 54 56  0  0  0  0  0  0  0  0999 V2000
    2.0206   -4.6132    2.2592 C   0  0  0  0  0  0  0  0  0  0  0  0
    3.3890   -4.1542    1.8158 C   0  0  0  0  0  0  0  0  0  0  0  0
    3.9697   -4.6270    0.6336 C   0  0  0  0  0  0  0  0  0  0  0  0
    5.2324   -4.1969    0.2057 C   0  0  0  0  0  0  0  0  0  0  0  0
    5.8295   -4.7258   -1.0764 C   0  0  0  0  0  0  0  0  0  0  0  0
    5.9347   -3.2670    1.0001 C   0  0  0  0  0  0  0  0  0  0  0  0
    7.2258   -2.8509    0.5611 N   0  0  0  0  0  0  0  0  0  0  0  0
    7.5900   -1.5729    0.2346 C   0  0  0  0  0  0  0  0  0  0  0  0
    6.9105   -0.5814    0.4165 O   0  0  0  0  0  0  0  0  0  0  0  0
    8.9699   -1.4351   -0.4326 C   0  0  0  0  0  0  0  0  0  0  0  0
    9.7946   -2.6244   -0.4983 N   0  0  0  0  0  0  0  0  0  0  0  0
    9.9492   -3.3373   -1.6588 C   0  0  0  0  0  0  0  0  0  0  0  0
    9.3109   -3.1156   -2.6712 O   0  0  0  0  0  0  0  0  0  0  0  0
   10.9198   -4.5166   -1.5893 C   0  0  0  0  0  0  0  0  0  0  0  0
   12.0303   -4.3586   -0.6422 N   0  0  0  0  0  0  0  0  0  0  0  0
   12.1094   -5.3756    0.3248 C   0  0  0  0  0  0  0  0  0  0  0  0
   11.3139   -6.2989    0.3036 O   0  0  0  0  0  0  0  0  0  0  0  0
   13.1007   -5.3641    1.4829 C   0  0  0  0  0  0  0  0  0  0  0  0
   14.1871   -4.3161    1.5735 C   0  0  0  0  0  0  0  0  0  0  0  0
   13.6405   -3.0108    1.4099 O   0  0  0  0  0  0  0  0  0  0  0  0
   13.6441   -2.5855    0.1106 C   0  0  0  0  0  0  0  0  0  0  0  0
   14.4001   -1.4482   -0.1899 C   0  0  0  0  0  0  0  0  0  0  0  0
   14.4750   -0.9556   -1.4913 C   0  0  0  0  0  0  0  0  0  0  0  0
   13.8018   -1.6349   -2.5072 C   0  0  0  0  0  0  0  0  0  0  0  0
   13.0439   -2.7688   -2.2140 C   0  0  0  0  0  0  0  0  0  0  0  0
   12.9298   -3.2697   -0.9008 C   0  0  0  0  0  0  0  0  0  0  0  0
    5.3906   -2.7878    2.2113 C   0  0  0  0  0  0  0  0  0  0  0  0
    6.1494   -1.8339    3.0966 C   0  0  0  0  0  0  0  0  0  0  0  0
    4.1190   -3.2392    2.5860 C   0  0  0  0  0  0  0  0  0  0  0  0
    1.5914   -5.3442    1.5581 H   0  0  0  0  0  0  0  0  0  0  0  0
    1.3182   -3.7658    2.3324 H   0  0  0  0  0  0  0  0  0  0  0  0
    2.0581   -5.0846    3.2557 H   0  0  0  0  0  0  0  0  0  0  0  0
    3.4215   -5.3448    0.0161 H   0  0  0  0  0  0  0  0  0  0  0  0
    5.0823   -5.2846   -1.6577 H   0  0  0  0  0  0  0  0  0  0  0  0
    6.6691   -5.4189   -0.8827 H   0  0  0  0  0  0  0  0  0  0  0  0
    6.2271   -3.9192   -1.7126 H   0  0  0  0  0  0  0  0  0  0  0  0
    7.8613   -3.5749    0.2426 H   0  0  0  0  0  0  0  0  0  0  0  0
    9.4992   -0.6236    0.0896 H   0  0  0  0  0  0  0  0  0  0  0  0
    8.7778   -1.0973   -1.4623 H   0  0  0  0  0  0  0  0  0  0  0  0
   10.4355   -2.8162    0.2638 H   0  0  0  0  0  0  0  0  0  0  0  0
   11.2594   -4.7241   -2.6123 H   0  0  0  0  0  0  0  0  0  0  0  0
   10.3591   -5.4020   -1.2610 H   0  0  0  0  0  0  0  0  0  0  0  0
   13.5333   -6.3770    1.5161 H   0  0  0  0  0  0  0  0  0  0  0  0
   12.4555   -5.2922    2.3745 H   0  0  0  0  0  0  0  0  0  0  0  0
   14.9873   -4.4814    0.8312 H   0  0  0  0  0  0  0  0  0  0  0  0
   14.6482   -4.3494    2.5727 H   0  0  0  0  0  0  0  0  0  0  0  0
   14.9238   -0.9657    0.6379 H   0  0  0  0  0  0  0  0  0  0  0  0
   15.0613   -0.0603   -1.7091 H   0  0  0  0  0  0  0  0  0  0  0  0
   13.8527   -1.2822   -3.5397 H   0  0  0  0  0  0  0  0  0  0  0  0
   12.5182   -3.2583   -3.0313 H   0  0  0  0  0  0  0  0  0  0  0  0
    7.1982   -2.1525    3.2148 H   0  0  0  0  0  0  0  0  0  0  0  0
    5.6920   -1.7742    4.0948 H   0  0  0  0  0  0  0  0  0  0  0  0
    6.1746   -0.8271    2.6520 H   0  0  0  0  0  0  0  0  0  0  0  0
    3.6905   -2.8688    3.5226 H   0  0  0  0  0  0  0  0  0  0  0  0
  1  2  1  0
  1 30  1  0
  1 31  1  0
  1 32  1  0
  2  3  2  0
  2 29  1  0
  3  4  1  0
  3 33  1  0
  4  5  1  0
  4  6  2  0
  5 34  1  0
  5 35  1  0
  5 36  1  0
  6  7  1  0
  6 27  1  0
  7  8  1  0
  7 37  1  0
  8  9  2  0
  8 10  1  0
 10 11  1  0
 10 38  1  0
 10 39  1  0
 11 12  1  0
 11 40  1  0
 12 13  2  0
 12 14  1  0
 14 15  1  0
 14 41  1  0
 14 42  1  0
 15 16  1  0
 15 26  1  0
 16 17  2  0
 16 18  1  0
 18 19  1  0
 18 43  1  0
 18 44  1  0
 19 20  1  0
 19 45  1  0
 19 46  1  0
 20 21  1  0
 21 22  1  0
 21 26  2  0
 22 23  2  0
 22 47  1  0
 23 24  1  0
 23 48  1  0
 24 25  2  0
 24 49  1  0
 25 26  1  0
 25 50  1  0
 27 28  1  0
 27 29  2  0
 28 51  1  0
 28 52  1  0
 28 53  1  0
 29 54  1  0
M  END

