
     RDKit          3D

 46 47  0  0  0  0  0  0  0  0999 V2000
   -0.5405   -6.7323    0.1237 C   0  0  0  0  0  0  0  0  0  0  0  0
    0.6581   -5.9731   -0.3555 C   0  0  0  0  0  0  0  0  0  0  0  0
    1.2292   -6.1590   -1.5106 N   0  0  0  0  0  0  0  0  0  0  0  0
    2.3037   -5.3247   -1.7198 C   0  0  0  0  0  0  0  0  0  0  0  0
    3.0425   -5.4324   -3.0192 C   0  0  0  0  0  0  0  0  0  0  0  0
    2.5538   -4.4659   -0.6659 C   0  0  0  0  0  0  0  0  0  0  0  0
    3.8367   -3.2494   -0.4201 S   0  0  1  0  0  0  0  0  0  0  0  0
    4.4171   -2.9496   -1.7290 O   0  0  0  0  0  0  0  0  0  0  0  0
    3.2482   -2.2313    0.4456 O   0  0  0  0  0  0  0  0  0  0  0  0
    5.0427   -3.9427    0.4855 N   0  0  0  0  0  0  0  0  0  0  0  0
    6.0680   -4.8311   -0.0462 C   0  0  0  0  0  0  0  0  0  0  0  0
    5.7604   -6.3282    0.0920 C   0  0  0  0  0  0  0  0  0  0  0  0
    6.8722   -7.2425   -0.4656 C   0  0  1  0  0  0  0  0  0  0  0  0
    8.1570   -7.2556    0.3972 C   0  0  0  0  0  0  0  0  0  0  0  0
    7.9860   -8.0719    1.6904 C   0  0  0  0  0  0  0  0  0  0  0  0
    7.5073   -9.4306    1.4492 N   0  0  0  0  0  0  0  0  0  0  0  0
    8.5132  -10.4151    1.1341 C   0  0  0  0  0  0  0  0  0  0  0  0
    8.9187  -11.2254    2.3591 C   0  0  1  0  0  0  0  0  0  0  0  0
    9.4123  -10.4417    3.3359 F   0  0  0  0  0  0  0  0  0  0  0  0
    7.8861  -11.9088    2.8721 F   0  0  0  0  0  0  0  0  0  0  0  0
    9.8765  -12.1165    2.0358 F   0  0  0  0  0  0  0  0  0  0  0  0
    6.2748   -9.4579    0.6691 C   0  0  0  0  0  0  0  0  0  0  0  0
    6.3884   -8.6971   -0.6625 C   0  0  0  0  0  0  0  0  0  0  0  0
    1.3918   -4.7111    0.6137 S   0  0  0  0  0  0  0  0  0  0  0  0
   -0.7972   -7.4884   -0.6302 H   0  0  0  0  0  0  0  0  0  0  0  0
   -1.4068   -6.0661    0.2662 H   0  0  0  0  0  0  0  0  0  0  0  0
   -0.3456   -7.2348    1.0845 H   0  0  0  0  0  0  0  0  0  0  0  0
    2.3197   -5.4009   -3.8492 H   0  0  0  0  0  0  0  0  0  0  0  0
    3.5548   -6.4073   -3.0829 H   0  0  0  0  0  0  0  0  0  0  0  0
    3.7725   -4.6251   -3.1390 H   0  0  0  0  0  0  0  0  0  0  0  0
    4.8289   -3.9656    1.4790 H   0  0  0  0  0  0  0  0  0  0  0  0
    7.0143   -4.5792    0.4608 H   0  0  0  0  0  0  0  0  0  0  0  0
    6.2086   -4.5581   -1.1033 H   0  0  0  0  0  0  0  0  0  0  0  0
    4.8204   -6.5407   -0.4442 H   0  0  0  0  0  0  0  0  0  0  0  0
    5.5587   -6.5547    1.1538 H   0  0  0  0  0  0  0  0  0  0  0  0
    7.1378   -6.8437   -1.4614 H   0  0  0  0  0  0  0  0  0  0  0  0
    8.4842   -6.2316    0.6436 H   0  0  0  0  0  0  0  0  0  0  0  0
    8.9750   -7.6969   -0.1996 H   0  0  0  0  0  0  0  0  0  0  0  0
    7.2677   -7.5685    2.3628 H   0  0  0  0  0  0  0  0  0  0  0  0
    8.9322   -8.1206    2.2488 H   0  0  0  0  0  0  0  0  0  0  0  0
    9.4450   -9.9900    0.7139 H   0  0  0  0  0  0  0  0  0  0  0  0
    8.1424  -11.1431    0.3955 H   0  0  0  0  0  0  0  0  0  0  0  0
    5.4692   -9.0165    1.2839 H   0  0  0  0  0  0  0  0  0  0  0  0
    5.9819  -10.5052    0.4977 H   0  0  0  0  0  0  0  0  0  0  0  0
    5.4195   -8.7117   -1.1907 H   0  0  0  0  0  0  0  0  0  0  0  0
    7.1070   -9.2263   -1.3140 H   0  0  0  0  0  0  0  0  0  0  0  0
  1  2  1  0
  1 25  1  0
  1 26  1  0
  1 27  1  0
  2  3  2  0
  2 24  1  0
  3  4  1  0
  4  5  1  0
  4  6  2  0
  5 28  1  0
  5 29  1  0
  5 30  1  0
  6  7  1  0
  6 24  1  0
  7  8  2  0
  7  9  2  0
  7 10  1  1
 10 11  1  0
 10 31  1  0
 11 12  1  0
 11 32  1  0
 11 33  1  0
 12 13  1  0
 12 34  1  0
 12 35  1  0
 13 14  1  0
 13 23  1  0
 13 36  1  6
 14 15  1  0
 14 37  1  0
 14 38  1  0
 15 16  1  0
 15 39  1  0
 15 40  1  0
 16 17  1  0
 16 22  1  0
 17 18  1  0
 17 41  1  0
 17 42  1  0
 18 19  1  1
 18 20  1  0
 18 21  1  0
 22 23  1  0
 22 43  1  0
 22 44  1  0
 23 45  1  0
 23 46  1  0
M  END

