
     RDKit          3D

 87 90  0  0  0  0  0  0  0  0999 V2000
    8.4128   -0.9624    1.9671 C   0  0  0  0  0  0  0  0  0  0  0  0
    8.1276    0.3728    2.2775 O   0  0  0  0  0  0  0  0  0  0  0  0
    6.8056    0.7548    1.9873 C   0  0  0  0  0  0  0  0  0  0  0  0
    6.6213    2.2178    2.3609 C   0  0  0  0  0  0  0  0  0  0  0  0
    5.2146    2.7204    2.0859 C   0  0  0  0  0  0  0  0  0  0  0  0
    5.1592    4.0979    2.4631 O   0  0  0  0  0  0  0  0  0  0  0  0
    3.9606    4.7378    2.3395 C   0  0  0  0  0  0  0  0  0  0  0  0
    3.7877    5.6906    1.3229 C   0  0  0  0  0  0  0  0  0  0  0  0
    4.9017    5.9031    0.3188 C   0  0  0  0  0  0  0  0  0  0  0  0
    5.0190    4.8443   -0.6249 O   0  0  0  0  0  0  0  0  0  0  0  0
    4.0652    4.8490   -1.6910 C   0  0  1  0  0  0  0  0  0  0  0  0
    4.5715    5.7429   -2.8360 C   0  0  0  0  0  0  0  0  0  0  0  0
    5.8304    5.2819   -3.4078 N   0  0  0  0  0  0  0  0  0  0  0  0
    5.7271    3.9112   -3.9011 C   0  0  0  0  0  0  0  0  0  0  0  0
    5.1887    2.9104   -2.8595 C   0  0  0  0  0  0  0  0  0  0  0  0
    3.8938    3.3794   -2.1595 C   0  0  2  0  0  0  0  0  0  0  0  0
    2.5932    3.1776   -2.9376 C   0  0  0  0  0  0  0  0  0  0  0  0
    2.5262    2.7444   -4.2664 C   0  0  0  0  0  0  0  0  0  0  0  0
    1.3048    2.5480   -4.9280 C   0  0  0  0  0  0  0  0  0  0  0  0
    0.0999    2.7832   -4.2553 C   0  0  0  0  0  0  0  0  0  0  0  0
   -1.1364    2.6284   -4.7974 O   0  0  0  0  0  0  0  0  0  0  0  0
   -1.2643    2.1986   -6.1396 C   0  0  0  0  0  0  0  0  0  0  0  0
   -2.7471    2.1196   -6.4678 C   0  0  0  0  0  0  0  0  0  0  0  0
   -3.0099    1.6612   -7.8949 C   0  0  0  0  0  0  0  0  0  0  0  0
   -4.3980    1.6211   -8.1084 O   0  0  0  0  0  0  0  0  0  0  0  0
   -4.7684    1.2062   -9.3987 C   0  0  0  0  0  0  0  0  0  0  0  0
   -6.2701    1.1957   -9.5430 C   0  0  0  0  0  0  0  0  0  0  0  0
   -7.1236    1.5621   -8.5026 C   0  0  0  0  0  0  0  0  0  0  0  0
   -8.5148    1.5421   -8.6693 C   0  0  0  0  0  0  0  0  0  0  0  0
   -9.0560    1.1507   -9.8921 C   0  0  0  0  0  0  0  0  0  0  0  0
   -8.2190    0.7781  -10.9523 C   0  0  0  0  0  0  0  0  0  0  0  0
   -6.8300    0.8006  -10.7783 C   0  0  0  0  0  0  0  0  0  0  0  0
   -5.9277    0.4585  -11.7418 O   0  0  0  0  0  0  0  0  0  0  0  0
   -6.3880    0.0517  -13.0099 C   0  0  0  0  0  0  0  0  0  0  0  0
    0.1433    3.2054   -2.9146 C   0  0  0  0  0  0  0  0  0  0  0  0
    1.3638    3.3932   -2.2784 C   0  0  0  0  0  0  0  0  0  0  0  0
    2.5863    6.4169    1.2590 C   0  0  0  0  0  0  0  0  0  0  0  0
    1.5680    6.1827    2.1807 C   0  0  0  0  0  0  0  0  0  0  0  0
    1.7312    5.2256    3.1890 C   0  0  0  0  0  0  0  0  0  0  0  0
    2.9278    4.5025    3.2803 C   0  0  0  0  0  0  0  0  0  0  0  0
    3.1945    3.5701    4.2317 O   0  0  0  0  0  0  0  0  0  0  0  0
    2.2369    3.3152    5.2340 C   0  0  0  0  0  0  0  0  0  0  0  0
    9.4636   -1.1541    2.2304 H   0  0  0  0  0  0  0  0  0  0  0  0
    8.2761   -1.1795    0.8871 H   0  0  0  0  0  0  0  0  0  0  0  0
    7.7736   -1.6700    2.5354 H   0  0  0  0  0  0  0  0  0  0  0  0
    6.0861    0.1179    2.5479 H   0  0  0  0  0  0  0  0  0  0  0  0
    6.5850    0.6002    0.9082 H   0  0  0  0  0  0  0  0  0  0  0  0
    7.3447    2.8280    1.7962 H   0  0  0  0  0  0  0  0  0  0  0  0
    6.8526    2.3507    3.4302 H   0  0  0  0  0  0  0  0  0  0  0  0
    4.4727    2.1436    2.6650 H   0  0  0  0  0  0  0  0  0  0  0  0
    4.9679    2.6342    1.0126 H   0  0  0  0  0  0  0  0  0  0  0  0
    5.8681    5.9379    0.8409 H   0  0  0  0  0  0  0  0  0  0  0  0
    4.7543    6.8722   -0.1921 H   0  0  0  0  0  0  0  0  0  0  0  0
    3.0954    5.2243   -1.3204 H   0  0  0  0  0  0  0  0  0  0  0  0
    4.6975    6.7787   -2.4785 H   0  0  0  0  0  0  0  0  0  0  0  0
    3.8051    5.7781   -3.6306 H   0  0  0  0  0  0  0  0  0  0  0  0
    6.5413    5.3187   -2.6760 H   0  0  0  0  0  0  0  0  0  0  0  0
    6.7211    3.5851   -4.2501 H   0  0  0  0  0  0  0  0  0  0  0  0
    5.0796    3.9281   -4.7947 H   0  0  0  0  0  0  0  0  0  0  0  0
    5.9570    2.7880   -2.0784 H   0  0  0  0  0  0  0  0  0  0  0  0
    5.0447    1.9152   -3.3131 H   0  0  0  0  0  0  0  0  0  0  0  0
    3.7882    2.7920   -1.2315 H   0  0  0  0  0  0  0  0  0  0  0  0
    3.4405    2.5399   -4.8246 H   0  0  0  0  0  0  0  0  0  0  0  0
    1.3149    2.2108   -5.9647 H   0  0  0  0  0  0  0  0  0  0  0  0
   -0.7810    1.2108   -6.2720 H   0  0  0  0  0  0  0  0  0  0  0  0
   -0.7506    2.9073   -6.8183 H   0  0  0  0  0  0  0  0  0  0  0  0
   -3.2073    3.1090   -6.3143 H   0  0  0  0  0  0  0  0  0  0  0  0
   -3.2386    1.4251   -5.7675 H   0  0  0  0  0  0  0  0  0  0  0  0
   -2.5618    0.6589   -8.0696 H   0  0  0  0  0  0  0  0  0  0  0  0
   -2.5261    2.3514   -8.6199 H   0  0  0  0  0  0  0  0  0  0  0  0
   -4.3674    0.1937   -9.6185 H   0  0  0  0  0  0  0  0  0  0  0  0
   -4.3263    1.8724  -10.1701 H   0  0  0  0  0  0  0  0  0  0  0  0
   -6.6787    1.8652   -7.5541 H   0  0  0  0  0  0  0  0  0  0  0  0
   -9.1684    1.8324   -7.8433 H   0  0  0  0  0  0  0  0  0  0  0  0
  -10.1396    1.1307  -10.0352 H   0  0  0  0  0  0  0  0  0  0  0  0
   -8.6575    0.4741  -11.9030 H   0  0  0  0  0  0  0  0  0  0  0  0
   -5.4963   -0.1698  -13.6120 H   0  0  0  0  0  0  0  0  0  0  0  0
   -6.9691    0.8468  -13.5111 H   0  0  0  0  0  0  0  0  0  0  0  0
   -7.0127   -0.8578  -12.9484 H   0  0  0  0  0  0  0  0  0  0  0  0
   -0.8009    3.3722   -2.3919 H   0  0  0  0  0  0  0  0  0  0  0  0
    1.3632    3.7066   -1.2303 H   0  0  0  0  0  0  0  0  0  0  0  0
    2.4575    7.1738    0.4807 H   0  0  0  0  0  0  0  0  0  0  0  0
    0.6346    6.7480    2.1243 H   0  0  0  0  0  0  0  0  0  0  0  0
    0.9271    5.0569    3.9056 H   0  0  0  0  0  0  0  0  0  0  0  0
    2.6715    2.5534    5.8952 H   0  0  0  0  0  0  0  0  0  0  0  0
    1.2917    2.9262    4.8135 H   0  0  0  0  0  0  0  0  0  0  0  0
    2.0149    4.2198    5.8283 H   0  0  0  0  0  0  0  0  0  0  0  0
  1  2  1  0
  1 43  1  0
  1 44  1  0
  1 45  1  0
  2  3  1  0
  3  4  1  0
  3 46  1  0
  3 47  1  0
  4  5  1  0
  4 48  1  0
  4 49  1  0
  5  6  1  0
  5 50  1  0
  5 51  1  0
  6  7  1  0
  7  8  2  0
  7 40  1  0
  8  9  1  0
  8 37  1  0
  9 10  1  0
  9 52  1  0
  9 53  1  0
 10 11  1  0
 11 12  1  0
 11 16  1  0
 11 54  1  1
 12 13  1  0
 12 55  1  0
 12 56  1  0
 13 14  1  0
 13 57  1  0
 14 15  1  0
 14 58  1  0
 14 59  1  0
 15 16  1  0
 15 60  1  0
 15 61  1  0
 16 17  1  0
 16 62  1  1
 17 18  2  0
 17 36  1  0
 18 19  1  0
 18 63  1  0
 19 20  2  0
 19 64  1  0
 20 21  1  0
 20 35  1  0
 21 22  1  0
 22 23  1  0
 22 65  1  0
 22 66  1  0
 23 24  1  0
 23 67  1  0
 23 68  1  0
 24 25  1  0
 24 69  1  0
 24 70  1  0
 25 26  1  0
 26 27  1  0
 26 71  1  0
 26 72  1  0
 27 28  2  0
 27 32  1  0
 28 29  1  0
 28 73  1  0
 29 30  2  0
 29 74  1  0
 30 31  1  0
 30 75  1  0
 31 32  2  0
 31 76  1  0
 32 33  1  0
 33 34  1  0
 34 77  1  0
 34 78  1  0
 34 79  1  0
 35 36  2  0
 35 80  1  0
 36 81  1  0
 37 38  2  0
 37 82  1  0
 38 39  1  0
 38 83  1  0
 39 40  2  0
 39 84  1  0
 40 41  1  0
 41 42  1  0
 42 85  1  0
 42 86  1  0
 42 87  1  0
M  END

