
     RDKit          3D

 65 68  0  0  0  0  0  0  0  0999 V2000
    4.6002    6.9675   -6.0699 C   0  0  0  0  0  0  0  0  0  0  0  0
    4.4981    7.5770   -4.7989 O   0  0  0  0  0  0  0  0  0  0  0  0
    4.8605    6.8913   -3.6954 C   0  0  0  0  0  0  0  0  0  0  0  0
    5.3495    5.5717   -3.7061 C   0  0  0  0  0  0  0  0  0  0  0  0
    5.6957    4.9496   -2.5059 C   0  0  0  0  0  0  0  0  0  0  0  0
    5.5687    5.6432   -1.3005 C   0  0  0  0  0  0  0  0  0  0  0  0
    5.9889    4.8320    0.2347 S   0  0  1  0  0  0  0  0  0  0  0  0
    5.5093    5.6693    1.3325 O   0  0  0  0  0  0  0  0  0  0  0  0
    5.6072    3.4228    0.1100 O   0  0  0  0  0  0  0  0  0  0  0  0
    7.7178    4.8327    0.2810 N   0  0  0  0  0  0  0  0  0  0  0  0
    8.4069    3.5503    0.1646 C   0  0  0  0  0  0  0  0  0  0  0  0
    8.8842    3.0901    1.5411 C   0  0  1  0  0  0  0  0  0  0  0  0
    9.6264    1.7509    1.4503 C   0  0  0  0  0  0  0  0  0  0  0  0
    9.1043    0.8200    0.8528 O   0  0  0  0  0  0  0  0  0  0  0  0
   10.8365    1.7099    2.0507 N   0  0  0  0  0  0  0  0  0  0  0  0
   11.6495    0.4928    2.1180 C   0  0  1  0  0  0  0  0  0  0  0  0
   13.1268    0.8436    1.9055 C   0  0  0  0  0  0  0  0  0  0  0  0
   11.3969   -0.2922    3.4066 C   0  0  0  0  0  0  0  0  0  0  0  0
   11.7568    0.2731    4.6388 C   0  0  0  0  0  0  0  0  0  0  0  0
   11.5511   -0.3712    5.8630 C   0  0  0  0  0  0  0  0  0  0  0  0
   11.9560    0.2874    7.1588 C   0  0  0  0  0  0  0  0  0  0  0  0
   10.9542   -1.6517    5.8529 C   0  0  0  0  0  0  0  0  0  0  0  0
   10.7051   -2.4001    7.1390 C   0  0  0  0  0  0  0  0  0  0  0  0
   10.5928   -2.2120    4.6228 C   0  0  0  0  0  0  0  0  0  0  0  0
   10.7942   -1.5667    3.3920 C   0  0  0  0  0  0  0  0  0  0  0  0
   10.3547   -2.2413    2.1114 C   0  0  0  0  0  0  0  0  0  0  0  0
    9.7198    4.0766    2.1429 O   0  0  0  0  0  0  0  0  0  0  0  0
    9.4065    5.3915    1.9470 C   0  0  0  0  0  0  0  0  0  0  0  0
   10.1420    6.3401    2.6668 C   0  0  0  0  0  0  0  0  0  0  0  0
    9.8920    7.7015    2.5175 C   0  0  0  0  0  0  0  0  0  0  0  0
    8.9003    8.1137    1.6212 C   0  0  0  0  0  0  0  0  0  0  0  0
    8.5776    9.8220    1.4104 Cl  0  0  0  0  0  0  0  0  0  0  0  0
    8.1750    7.1854    0.8791 C   0  0  0  0  0  0  0  0  0  0  0  0
    8.4072    5.8107    1.0407 C   0  0  0  0  0  0  0  0  0  0  0  0
    5.0657    6.9514   -1.2772 C   0  0  0  0  0  0  0  0  0  0  0  0
    4.7169    7.5714   -2.4704 C   0  0  0  0  0  0  0  0  0  0  0  0
    4.2542    7.7115   -6.7992 H   0  0  0  0  0  0  0  0  0  0  0  0
    3.9629    6.0688   -6.1442 H   0  0  0  0  0  0  0  0  0  0  0  0
    5.6424    6.6900   -6.3073 H   0  0  0  0  0  0  0  0  0  0  0  0
    5.4532    5.0185   -4.6392 H   0  0  0  0  0  0  0  0  0  0  0  0
    6.0509    3.9174   -2.5103 H   0  0  0  0  0  0  0  0  0  0  0  0
    9.2690    3.6657   -0.5142 H   0  0  0  0  0  0  0  0  0  0  0  0
    7.7333    2.7887   -0.2398 H   0  0  0  0  0  0  0  0  0  0  0  0
    7.9936    2.9261    2.1761 H   0  0  0  0  0  0  0  0  0  0  0  0
   11.1389    2.5467    2.5386 H   0  0  0  0  0  0  0  0  0  0  0  0
   11.3137   -0.1156    1.2704 H   0  0  0  0  0  0  0  0  0  0  0  0
   13.5080    1.5071    2.6991 H   0  0  0  0  0  0  0  0  0  0  0  0
   13.2689    1.3507    0.9383 H   0  0  0  0  0  0  0  0  0  0  0  0
   13.7422   -0.0684    1.9165 H   0  0  0  0  0  0  0  0  0  0  0  0
   12.2168    1.2667    4.6547 H   0  0  0  0  0  0  0  0  0  0  0  0
   12.4042    1.2766    6.9839 H   0  0  0  0  0  0  0  0  0  0  0  0
   12.6918   -0.3199    7.7137 H   0  0  0  0  0  0  0  0  0  0  0  0
   11.0939    0.4254    7.8337 H   0  0  0  0  0  0  0  0  0  0  0  0
   10.0449   -1.8341    7.8185 H   0  0  0  0  0  0  0  0  0  0  0  0
   11.6419   -2.5810    7.6937 H   0  0  0  0  0  0  0  0  0  0  0  0
   10.2338   -3.3756    6.9505 H   0  0  0  0  0  0  0  0  0  0  0  0
   10.1240   -3.2010    4.6189 H   0  0  0  0  0  0  0  0  0  0  0  0
    9.8237   -3.1795    2.3285 H   0  0  0  0  0  0  0  0  0  0  0  0
   11.2122   -2.4942    1.4639 H   0  0  0  0  0  0  0  0  0  0  0  0
    9.6840   -1.5924    1.5261 H   0  0  0  0  0  0  0  0  0  0  0  0
   10.9072    5.9840    3.3595 H   0  0  0  0  0  0  0  0  0  0  0  0
   10.4572    8.4393    3.0880 H   0  0  0  0  0  0  0  0  0  0  0  0
    7.4285    7.5307    0.1668 H   0  0  0  0  0  0  0  0  0  0  0  0
    4.9371    7.4644   -0.3226 H   0  0  0  0  0  0  0  0  0  0  0  0
    4.3194    8.5878   -2.4851 H   0  0  0  0  0  0  0  0  0  0  0  0
  1  2  1  0
  1 37  1  0
  1 38  1  0
  1 39  1  0
  2  3  1  0
  3  4  2  0
  3 36  1  0
  4  5  1  0
  4 40  1  0
  5  6  2  0
  5 41  1  0
  7  6  1  6
  6 35  1  0
  7  8  2  0
  7  9  2  0
  7 10  1  0
 10 11  1  0
 10 34  1  0
 11 12  1  0
 11 42  1  0
 11 43  1  0
 12 13  1  0
 12 27  1  0
 12 44  1  1
 13 14  2  0
 13 15  1  0
 15 16  1  0
 15 45  1  0
 16 17  1  0
 16 18  1  0
 16 46  1  6
 17 47  1  0
 17 48  1  0
 17 49  1  0
 18 19  2  0
 18 25  1  0
 19 20  1  0
 19 50  1  0
 20 21  1  0
 20 22  2  0
 21 51  1  0
 21 52  1  0
 21 53  1  0
 22 23  1  0
 22 24  1  0
 23 54  1  0
 23 55  1  0
 23 56  1  0
 24 25  2  0
 24 57  1  0
 25 26  1  0
 26 58  1  0
 26 59  1  0
 26 60  1  0
 27 28  1  0
 28 29  2  0
 28 34  1  0
 29 30  1  0
 29 61  1  0
 30 31  2  0
 30 62  1  0
 31 32  1  0
 31 33  1  0
 33 34  2  0
 33 63  1  0
 35 36  2  0
 35 64  1  0
 36 65  1  0
M  END

