
     RDKit          3D

 58 62  0  0  0  0  0  0  0  0999 V2000
    3.0057    0.3235    1.0953 O   0  0  0  0  0  0  0  0  0  0  0  0
    2.3589    0.9316    0.2622 C   0  0  0  0  0  0  0  0  0  0  0  0
    2.9601    1.9493   -0.4640 N   0  0  0  0  0  0  0  0  0  0  0  0
    2.7038    2.5088   -1.7247 C   0  0  0  0  0  0  0  0  0  0  0  0
    1.7834    2.0111   -2.6481 C   0  0  0  0  0  0  0  0  0  0  0  0
    1.5901    2.6271   -3.9053 C   0  0  0  0  0  0  0  0  0  0  0  0
    0.5684    2.1709   -4.8698 C   0  0  0  0  0  0  0  0  0  0  0  0
    0.1148    2.9628   -5.9241 C   0  0  0  0  0  0  0  0  0  0  0  0
   -0.8544    2.4929   -6.8361 C   0  0  0  0  0  0  0  0  0  0  0  0
   -1.4019    1.2950   -6.7540 N   0  0  0  0  0  0  0  0  0  0  0  0
   -0.9922    0.5220   -5.7377 C   0  0  0  0  0  0  0  0  0  0  0  0
   -1.3806   -0.7705   -5.3714 C   0  0  0  0  0  0  0  0  0  0  0  0
   -2.3814   -1.6293   -6.0487 C   0  0  0  0  0  0  0  0  0  0  0  0
   -2.6657   -2.7366   -5.6669 O   0  0  0  0  0  0  0  0  0  0  0  0
   -2.9602   -1.0810   -7.1337 O   0  0  0  0  0  0  0  0  0  0  0  0
   -0.6137   -1.0492   -4.2240 C   0  0  0  0  0  0  0  0  0  0  0  0
    0.1938   -0.0454   -3.8825 N   0  0  0  0  0  0  0  0  0  0  0  0
   -0.0271    0.9261   -4.7973 N   0  0  0  0  0  0  0  0  0  0  0  0
    2.3948    3.7355   -4.2327 C   0  0  0  0  0  0  0  0  0  0  0  0
    3.3424    4.2251   -3.3367 C   0  0  0  0  0  0  0  0  0  0  0  0
    3.4985    3.6332   -2.0790 C   0  0  0  0  0  0  0  0  0  0  0  0
    4.3947    4.0227   -1.1436 O   0  0  0  0  0  0  0  0  0  0  0  0
    5.2569    5.1325   -1.3881 C   0  0  0  0  0  0  0  0  0  0  0  0
    6.1064    5.3797   -0.1666 C   0  0  0  0  0  0  0  0  0  0  0  0
    5.5283    5.3987    1.1123 C   0  0  0  0  0  0  0  0  0  0  0  0
    6.3119    5.6602    2.2377 C   0  0  0  0  0  0  0  0  0  0  0  0
    7.6808    5.9146    2.0984 C   0  0  0  0  0  0  0  0  0  0  0  0
    8.2629    5.8986    0.8287 C   0  0  0  0  0  0  0  0  0  0  0  0
    7.4794    5.6262   -0.2972 C   0  0  0  0  0  0  0  0  0  0  0  0
    0.8984    0.6390    0.0641 C   0  0  0  0  0  0  0  0  0  0  0  0
   -0.0664    1.6531   -0.0365 C   0  0  0  0  0  0  0  0  0  0  0  0
   -1.4211    1.3264   -0.1162 C   0  0  0  0  0  0  0  0  0  0  0  0
   -1.8235   -0.0116   -0.1206 C   0  0  0  0  0  0  0  0  0  0  0  0
   -0.8627   -1.0240   -0.0171 C   0  0  0  0  0  0  0  0  0  0  0  0
   -1.2695   -2.4767   -0.0766 C   0  0  1  0  0  0  0  0  0  0  0  0
   -2.5654   -2.6509    0.2247 F   0  0  0  0  0  0  0  0  0  0  0  0
   -1.0784   -2.9875   -1.3131 F   0  0  0  0  0  0  0  0  0  0  0  0
   -0.5477   -3.2310    0.7678 F   0  0  0  0  0  0  0  0  0  0  0  0
    0.4916   -0.6999    0.0995 C   0  0  0  0  0  0  0  0  0  0  0  0
    3.8793    2.1804   -0.0915 H   0  0  0  0  0  0  0  0  0  0  0  0
    1.2133    1.1182   -2.4180 H   0  0  0  0  0  0  0  0  0  0  0  0
    0.4941    3.9753   -6.0383 H   0  0  0  0  0  0  0  0  0  0  0  0
   -1.1872    3.1399   -7.6544 H   0  0  0  0  0  0  0  0  0  0  0  0
   -2.6110   -0.1793   -7.2966 H   0  0  0  0  0  0  0  0  0  0  0  0
   -0.6375   -1.9554   -3.6199 H   0  0  0  0  0  0  0  0  0  0  0  0
    2.3170    4.2146   -5.2082 H   0  0  0  0  0  0  0  0  0  0  0  0
    3.9634    5.0711   -3.6295 H   0  0  0  0  0  0  0  0  0  0  0  0
    4.6384    6.0207   -1.6184 H   0  0  0  0  0  0  0  0  0  0  0  0
    5.8932    4.9300   -2.2674 H   0  0  0  0  0  0  0  0  0  0  0  0
    4.4607    5.1952    1.2241 H   0  0  0  0  0  0  0  0  0  0  0  0
    5.8523    5.6660    3.2293 H   0  0  0  0  0  0  0  0  0  0  0  0
    8.2929    6.1201    2.9802 H   0  0  0  0  0  0  0  0  0  0  0  0
    9.3329    6.0886    0.7126 H   0  0  0  0  0  0  0  0  0  0  0  0
    7.9436    5.6021   -1.2875 H   0  0  0  0  0  0  0  0  0  0  0  0
    0.2434    2.7004   -0.0398 H   0  0  0  0  0  0  0  0  0  0  0  0
   -2.1708    2.1188   -0.1764 H   0  0  0  0  0  0  0  0  0  0  0  0
   -2.8806   -0.2718   -0.1954 H   0  0  0  0  0  0  0  0  0  0  0  0
    1.2429   -1.4817    0.2213 H   0  0  0  0  0  0  0  0  0  0  0  0
  1  2  2  0
  2  3  1  0
  2 30  1  0
  3  4  1  0
  3 40  1  0
  4  5  2  0
  4 21  1  0
  5  6  1  0
  5 41  1  0
  6  7  1  0
  6 19  2  0
  7  8  2  0
  7 18  1  0
  8  9  1  0
  8 42  1  0
  9 10  2  0
  9 43  1  0
 10 11  1  0
 11 12  2  0
 11 18  1  0
 12 13  1  0
 12 16  1  0
 13 14  2  0
 13 15  1  0
 15 44  1  0
 16 17  2  0
 16 45  1  0
 17 18  1  0
 19 20  1  0
 19 46  1  0
 20 21  2  0
 20 47  1  0
 21 22  1  0
 22 23  1  0
 23 24  1  0
 23 48  1  0
 23 49  1  0
 24 25  2  0
 24 29  1  0
 25 26  1  0
 25 50  1  0
 26 27  2  0
 26 51  1  0
 27 28  1  0
 27 52  1  0
 28 29  2  0
 28 53  1  0
 29 54  1  0
 30 31  2  0
 30 39  1  0
 31 32  1  0
 31 55  1  0
 32 33  2  0
 32 56  1  0
 33 34  1  0
 33 57  1  0
 34 35  1  0
 34 39  2  0
 35 36  1  1
 35 37  1  0
 35 38  1  0
 39 58  1  0
M  END

