
     RDKit          3D

 46 46  0  0  0  0  0  0  0  0999 V2000
   11.1780    8.1999    0.3317 C   0  0  0  0  0  0  0  0  0  0  0  0
   11.7508    6.8758    0.8057 C   0  0  0  0  0  0  0  0  0  0  0  0
   10.7853    5.8089    0.6873 O   0  0  0  0  0  0  0  0  0  0  0  0
    9.9571    5.5943    1.7141 C   0  0  0  0  0  0  0  0  0  0  0  0
    9.9456    6.2256    2.7423 O   0  0  0  0  0  0  0  0  0  0  0  0
    9.0403    4.4007    1.4559 C   0  0  0  0  0  0  0  0  0  0  0  0
    8.6309    4.2299    0.0732 N   0  0  0  0  0  0  0  0  0  0  0  0
    7.7716    5.0692   -0.5439 N   0  0  0  0  0  0  0  0  0  0  0  0
    7.2778    6.0872    0.0660 C   0  0  0  0  0  0  0  0  0  0  0  0
    6.3372    6.9984   -0.5977 C   0  0  0  0  0  0  0  0  0  0  0  0
    5.9384    6.8250   -1.9378 C   0  0  0  0  0  0  0  0  0  0  0  0
    5.0448    7.7075   -2.5366 C   0  0  0  0  0  0  0  0  0  0  0  0
    4.5346    8.7831   -1.7972 C   0  0  0  0  0  0  0  0  0  0  0  0
    3.4124    9.8913   -2.5486 Cl  0  0  0  0  0  0  0  0  0  0  0  0
    4.9146    8.9778   -0.4669 C   0  0  0  0  0  0  0  0  0  0  0  0
    5.8116    8.0861    0.1224 C   0  0  0  0  0  0  0  0  0  0  0  0
    9.1768    3.1666   -0.6612 C   0  0  0  0  0  0  0  0  0  0  0  0
    9.9380    2.3836   -0.1249 O   0  0  0  0  0  0  0  0  0  0  0  0
    8.7500    3.0251   -2.1212 C   0  0  2  0  0  0  0  0  0  0  0  0
    8.6227    4.0303   -2.5431 H   0  0  0  0  0  0  0  0  0  0  0  0
    7.4066    2.2775   -2.1923 C   0  0  0  0  0  0  0  0  0  0  0  0
    9.8789    2.3080   -2.8786 C   0  0  0  0  0  0  0  0  0  0  0  0
    9.5968    2.1558   -4.6785 S   0  0  0  0  0  0  0  0  0  0  0  0
   10.1680    3.7714   -5.2221 C   0  0  0  0  0  0  0  0  0  0  0  0
   10.0624    3.9681   -6.7208 C   0  0  0  0  0  0  0  0  0  0  0  0
   10.5915    4.6122   -4.4671 O   0  0  0  0  0  0  0  0  0  0  0  0
   11.9615    8.9741    0.3567 H   0  0  0  0  0  0  0  0  0  0  0  0
   10.3549    8.5284    0.9836 H   0  0  0  0  0  0  0  0  0  0  0  0
   10.8046    8.1207   -0.7008 H   0  0  0  0  0  0  0  0  0  0  0  0
   12.0824    6.9370    1.8526 H   0  0  0  0  0  0  0  0  0  0  0  0
   12.5933    6.5554    0.1767 H   0  0  0  0  0  0  0  0  0  0  0  0
    8.1716    4.4863    2.1252 H   0  0  0  0  0  0  0  0  0  0  0  0
    9.5988    3.4896    1.7176 H   0  0  0  0  0  0  0  0  0  0  0  0
    7.5266    6.3359    1.1085 H   0  0  0  0  0  0  0  0  0  0  0  0
    6.3430    5.9859   -2.5061 H   0  0  0  0  0  0  0  0  0  0  0  0
    4.7374    7.5724   -3.5750 H   0  0  0  0  0  0  0  0  0  0  0  0
    4.5098    9.8196    0.0970 H   0  0  0  0  0  0  0  0  0  0  0  0
    6.1089    8.2384    1.1639 H   0  0  0  0  0  0  0  0  0  0  0  0
    7.1123    2.1278   -3.2421 H   0  0  0  0  0  0  0  0  0  0  0  0
    6.6123    2.8483   -1.6903 H   0  0  0  0  0  0  0  0  0  0  0  0
    7.4827    1.2883   -1.7120 H   0  0  0  0  0  0  0  0  0  0  0  0
   10.0196    1.2851   -2.5027 H   0  0  0  0  0  0  0  0  0  0  0  0
   10.8269    2.8491   -2.7554 H   0  0  0  0  0  0  0  0  0  0  0  0
    9.7324    3.0632   -7.2490 H   0  0  0  0  0  0  0  0  0  0  0  0
   11.0443    4.2862   -7.1042 H   0  0  0  0  0  0  0  0  0  0  0  0
    9.3507    4.7858   -6.9184 H   0  0  0  0  0  0  0  0  0  0  0  0
  1  2  1  0
  1 27  1  0
  1 28  1  0
  1 29  1  0
  2  3  1  0
  2 30  1  0
  2 31  1  0
  3  4  1  0
  4  5  2  0
  4  6  1  0
  6  7  1  0
  6 32  1  0
  6 33  1  0
  7  8  1  0
  7 17  1  0
  8  9  2  0
  9 10  1  0
  9 34  1  0
 10 11  2  0
 10 16  1  0
 11 12  1  0
 11 35  1  0
 12 13  2  0
 12 36  1  0
 13 14  1  0
 13 15  1  0
 15 16  2  0
 15 37  1  0
 16 38  1  0
 17 18  2  0
 17 19  1  0
 19 20  1  6
 19 21  1  0
 19 22  1  0
 21 39  1  0
 21 40  1  0
 21 41  1  0
 22 23  1  0
 22 42  1  0
 22 43  1  0
 23 24  2  0
 24 25  1  0
 24 26  1  0
 25 44  1  0
 25 45  1  0
 25 46  1  0
M  CHG  2  23   1  26  -1
M  END

