
     RDKit          3D

 60 61  0  0  0  0  0  0  0  0999 V2000
    6.5781    5.1160   -6.8364 C   0  0  0  0  0  0  0  0  0  0  0  0
    6.6325    3.6229   -7.1015 C   0  0  0  0  0  0  0  0  0  0  0  0
    6.1893    2.9211   -5.9552 O   0  0  0  0  0  0  0  0  0  0  0  0
    6.0103    1.5225   -6.1297 C   0  0  1  0  0  0  0  0  0  0  0  0
    7.3382    0.7518   -6.1639 C   0  0  0  0  0  0  0  0  0  0  0  0
    8.0108    0.7872   -4.7907 C   0  0  0  0  0  0  0  0  0  0  0  0
    7.0615    0.2980   -3.6940 C   0  0  0  0  0  0  0  0  0  0  0  0
    5.8255    1.0799   -3.6887 N   0  0  0  0  0  0  0  0  0  0  0  0
    4.8969    0.8832   -2.5712 C   0  0  1  0  0  0  0  0  0  0  0  0
    5.5579    0.4969   -1.2409 C   0  0  0  0  0  0  0  0  0  0  0  0
    4.0522    2.1535   -2.2978 C   0  0  0  0  0  0  0  0  0  0  0  0
    3.0303    2.0824   -1.6352 O   0  0  0  0  0  0  0  0  0  0  0  0
    4.6020    3.2997   -2.7976 N   0  0  0  0  0  0  0  0  0  0  0  0
    4.1615    4.6247   -2.6606 C   0  0  0  0  0  0  0  0  0  0  0  0
    3.0692    4.9963   -1.8540 C   0  0  0  0  0  0  0  0  0  0  0  0
    2.7266    6.3460   -1.7492 C   0  0  0  0  0  0  0  0  0  0  0  0
    3.4274    7.3317   -2.4480 C   0  0  0  0  0  0  0  0  0  0  0  0
    4.5037    6.9637   -3.2726 C   0  0  0  0  0  0  0  0  0  0  0  0
    5.3920    7.9675   -3.9712 C   0  0  0  0  0  0  0  0  0  0  0  0
    6.6079    7.8873   -3.8348 O   0  0  0  0  0  0  0  0  0  0  0  0
    4.8270    8.9708   -4.7257 N   0  0  0  0  0  0  0  0  0  0  0  0
    3.4320    9.0261   -5.1589 C   0  0  0  0  0  0  0  0  0  0  0  0
    3.2268    8.8929   -6.6705 C   0  0  0  0  0  0  0  0  0  0  0  0
    5.7319   10.0304   -5.1876 C   0  0  0  0  0  0  0  0  0  0  0  0
    6.6062    9.6713   -6.3920 C   0  0  0  0  0  0  0  0  0  0  0  0
    4.8734    5.6178   -3.3531 C   0  0  0  0  0  0  0  0  0  0  0  0
    5.1398    1.0157   -4.9787 C   0  0  0  0  0  0  0  0  0  0  0  0
    6.9148    5.6719   -7.7255 H   0  0  0  0  0  0  0  0  0  0  0  0
    7.2271    5.3977   -5.9930 H   0  0  0  0  0  0  0  0  0  0  0  0
    5.5510    5.4321   -6.5980 H   0  0  0  0  0  0  0  0  0  0  0  0
    7.6652    3.3260   -7.3723 H   0  0  0  0  0  0  0  0  0  0  0  0
    5.9903    3.3638   -7.9694 H   0  0  0  0  0  0  0  0  0  0  0  0
    5.4567    1.3462   -7.0747 H   0  0  0  0  0  0  0  0  0  0  0  0
    8.0038    1.1533   -6.9445 H   0  0  0  0  0  0  0  0  0  0  0  0
    7.1202   -0.2925   -6.4505 H   0  0  0  0  0  0  0  0  0  0  0  0
    8.3161    1.8206   -4.5594 H   0  0  0  0  0  0  0  0  0  0  0  0
    8.9218    0.1664   -4.7877 H   0  0  0  0  0  0  0  0  0  0  0  0
    7.5588    0.3943   -2.7206 H   0  0  0  0  0  0  0  0  0  0  0  0
    6.8534   -0.7879   -3.8459 H   0  0  0  0  0  0  0  0  0  0  0  0
    4.1503    0.0956   -2.8068 H   0  0  0  0  0  0  0  0  0  0  0  0
    6.3151    1.2376   -0.9380 H   0  0  0  0  0  0  0  0  0  0  0  0
    6.0293   -0.4954   -1.2857 H   0  0  0  0  0  0  0  0  0  0  0  0
    4.7773    0.4689   -0.4683 H   0  0  0  0  0  0  0  0  0  0  0  0
    5.4360    3.1333   -3.3651 H   0  0  0  0  0  0  0  0  0  0  0  0
    2.5159    4.2266   -1.3205 H   0  0  0  0  0  0  0  0  0  0  0  0
    1.8940    6.6321   -1.1010 H   0  0  0  0  0  0  0  0  0  0  0  0
    3.1526    8.3826   -2.3339 H   0  0  0  0  0  0  0  0  0  0  0  0
    2.9852    9.9769   -4.8113 H   0  0  0  0  0  0  0  0  0  0  0  0
    2.8839    8.2209   -4.6582 H   0  0  0  0  0  0  0  0  0  0  0  0
    3.6847    9.7222   -7.2308 H   0  0  0  0  0  0  0  0  0  0  0  0
    2.1487    8.8962   -6.8987 H   0  0  0  0  0  0  0  0  0  0  0  0
    3.6530    7.9489   -7.0456 H   0  0  0  0  0  0  0  0  0  0  0  0
    6.3890   10.2950   -4.3451 H   0  0  0  0  0  0  0  0  0  0  0  0
    5.1102   10.9131   -5.4117 H   0  0  0  0  0  0  0  0  0  0  0  0
    7.2524    8.8185   -6.1426 H   0  0  0  0  0  0  0  0  0  0  0  0
    7.2513   10.5263   -6.6534 H   0  0  0  0  0  0  0  0  0  0  0  0
    6.0080    9.4155   -7.2794 H   0  0  0  0  0  0  0  0  0  0  0  0
    5.7352    5.3389   -3.9611 H   0  0  0  0  0  0  0  0  0  0  0  0
    4.2280    1.6298   -4.9353 H   0  0  0  0  0  0  0  0  0  0  0  0
    4.8212   -0.0260   -5.2126 H   0  0  0  0  0  0  0  0  0  0  0  0
  1  2  1  0
  1 28  1  0
  1 29  1  0
  1 30  1  0
  2  3  1  0
  2 31  1  0
  2 32  1  0
  3  4  1  0
  4  5  1  0
  4 27  1  0
  4 33  1  6
  5  6  1  0
  5 34  1  0
  5 35  1  0
  6  7  1  0
  6 36  1  0
  6 37  1  0
  7  8  1  0
  7 38  1  0
  7 39  1  0
  8  9  1  0
  8 27  1  0
  9 10  1  0
  9 11  1  0
  9 40  1  6
 10 41  1  0
 10 42  1  0
 10 43  1  0
 11 12  2  0
 11 13  1  0
 13 14  1  0
 13 44  1  0
 14 15  2  0
 14 26  1  0
 15 16  1  0
 15 45  1  0
 16 17  2  0
 16 46  1  0
 17 18  1  0
 17 47  1  0
 18 19  1  0
 18 26  2  0
 19 20  2  0
 19 21  1  0
 21 22  1  0
 21 24  1  0
 22 23  1  0
 22 48  1  0
 22 49  1  0
 23 50  1  0
 23 51  1  0
 23 52  1  0
 24 25  1  0
 24 53  1  0
 24 54  1  0
 25 55  1  0
 25 56  1  0
 25 57  1  0
 26 58  1  0
 27 59  1  0
 27 60  1  0
M  END

