
     RDKit          3D

 37 40  0  0  0  0  0  0  0  0999 V2000
    0.5359    0.0013   -0.0596 C   0  0  0  0  0  0  0  0  0  0  0  0
    0.4485   -0.4392   -1.4395 N   0  0  0  0  0  0  0  0  0  0  0  0
    0.8456    0.5405   -2.4356 C   0  0  0  0  0  0  0  0  0  0  0  0
    2.3724    0.6813   -2.6249 C   0  0  0  0  0  0  0  0  0  0  0  0
    2.9787   -0.6261   -2.8492 N   0  0  0  0  0  0  0  0  0  0  0  0
    3.7958   -0.9520   -3.9038 C   0  0  0  0  0  0  0  0  0  0  0  0
    3.9813   -2.2235   -4.1762 N   0  0  0  0  0  0  0  0  0  0  0  0
    4.7529   -2.6162   -5.2372 C   0  0  0  0  0  0  0  0  0  0  0  0
    4.9127   -3.9928   -5.5182 C   0  0  0  0  0  0  0  0  0  0  0  0
    5.6553   -4.4329   -6.6048 C   0  0  0  0  0  0  0  0  0  0  0  0
    6.2656   -3.4933   -7.4513 C   0  0  0  0  0  0  0  0  0  0  0  0
    7.1958   -4.0422   -8.8269 Cl  0  0  0  0  0  0  0  0  0  0  0  0
    6.1412   -2.1272   -7.2123 C   0  0  0  0  0  0  0  0  0  0  0  0
    5.3933   -1.6978   -6.1091 C   0  0  0  0  0  0  0  0  0  0  0  0
    5.2448   -0.3446   -5.7742 N   0  0  0  0  0  0  0  0  0  0  0  0
    5.8400    0.7693   -6.2975 C   0  0  0  0  0  0  0  0  0  0  0  0
    5.5276    1.8561   -5.6232 N   0  0  0  0  0  0  0  0  0  0  0  0
    4.7000    1.4576   -4.6219 C   0  0  0  0  0  0  0  0  0  0  0  0
    4.4810    0.0801   -4.6786 C   0  0  0  0  0  0  0  0  0  0  0  0
    2.5951   -1.6473   -1.8706 C   0  0  0  0  0  0  0  0  0  0  0  0
    1.0691   -1.7275   -1.7260 C   0  0  0  0  0  0  0  0  0  0  0  0
   -0.0529    0.9237    0.0711 H   0  0  0  0  0  0  0  0  0  0  0  0
    1.5628    0.2099    0.3147 H   0  0  0  0  0  0  0  0  0  0  0  0
    0.0986   -0.7657    0.6000 H   0  0  0  0  0  0  0  0  0  0  0  0
    0.4210    1.5243   -2.1766 H   0  0  0  0  0  0  0  0  0  0  0  0
    0.4124    0.2418   -3.4078 H   0  0  0  0  0  0  0  0  0  0  0  0
    2.8286    1.1680   -1.7406 H   0  0  0  0  0  0  0  0  0  0  0  0
    2.5485    1.3268   -3.4903 H   0  0  0  0  0  0  0  0  0  0  0  0
    4.4225   -4.7033   -4.8502 H   0  0  0  0  0  0  0  0  0  0  0  0
    5.7678   -5.4982   -6.8114 H   0  0  0  0  0  0  0  0  0  0  0  0
    6.6241   -1.4166   -7.8825 H   0  0  0  0  0  0  0  0  0  0  0  0
    6.4985    0.7281   -7.1630 H   0  0  0  0  0  0  0  0  0  0  0  0
    4.3199    2.1728   -3.8977 H   0  0  0  0  0  0  0  0  0  0  0  0
    3.0547   -1.3873   -0.8973 H   0  0  0  0  0  0  0  0  0  0  0  0
    3.0089   -2.6058   -2.2024 H   0  0  0  0  0  0  0  0  0  0  0  0
    0.8080   -2.4446   -0.9309 H   0  0  0  0  0  0  0  0  0  0  0  0
    0.6475   -2.1158   -2.6706 H   0  0  0  0  0  0  0  0  0  0  0  0
  1  2  1  0
  1 22  1  0
  1 23  1  0
  1 24  1  0
  2  3  1  0
  2 21  1  0
  3  4  1  0
  3 25  1  0
  3 26  1  0
  4  5  1  0
  4 27  1  0
  4 28  1  0
  5  6  1  0
  5 20  1  0
  6  7  2  0
  6 19  1  0
  7  8  1  0
  8  9  2  0
  8 14  1  0
  9 10  1  0
  9 29  1  0
 10 11  2  0
 10 30  1  0
 11 12  1  0
 11 13  1  0
 13 14  2  0
 13 31  1  0
 14 15  1  0
 15 16  1  0
 15 19  1  0
 16 17  2  0
 16 32  1  0
 17 18  1  0
 18 19  2  0
 18 33  1  0
 20 21  1  0
 20 34  1  0
 20 35  1  0
 21 36  1  0
 21 37  1  0
M  END

