
     RDKit          3D

 51 52  0  0  0  0  0  0  0  0999 V2000
    4.4756   -1.8672   -0.3988 C   0  0  0  0  0  0  0  0  0  0  0  0
    5.8205   -1.4902   -0.2096 O   0  0  0  0  0  0  0  0  0  0  0  0
    6.1121   -0.1850    0.0445 C   0  0  0  0  0  0  0  0  0  0  0  0
    5.1681    0.8453    0.1127 C   0  0  0  0  0  0  0  0  0  0  0  0
    5.5350    2.1623    0.4152 C   0  0  0  0  0  0  0  0  0  0  0  0
    6.8800    2.4687    0.6555 C   0  0  0  0  0  0  0  0  0  0  0  0
    7.3428    3.7613    0.9788 N   0  0  0  0  0  0  0  0  0  0  0  0
    6.6315    4.9175    1.1145 C   0  0  0  0  0  0  0  0  0  0  0  0
    5.4262    5.0312    0.9705 O   0  0  0  0  0  0  0  0  0  0  0  0
    7.4755    6.1627    1.4434 C   0  0  1  0  0  0  0  0  0  0  0  0
    6.8289    7.0128    2.5274 C   0  0  0  0  0  0  0  0  0  0  0  0
    8.8025    5.7543    1.8363 O   0  0  0  0  0  0  0  0  0  0  0  0
    9.8499    6.5465    1.4820 C   0  0  0  0  0  0  0  0  0  0  0  0
    9.7223    7.5494    0.8222 O   0  0  0  0  0  0  0  0  0  0  0  0
   11.1491    6.0244    1.9916 C   0  0  0  0  0  0  0  0  0  0  0  0
   12.3180    6.6839    1.6041 C   0  0  0  0  0  0  0  0  0  0  0  0
   13.5592    6.2326    2.0611 C   0  0  0  0  0  0  0  0  0  0  0  0
   13.6348    5.1156    2.8942 C   0  0  0  0  0  0  0  0  0  0  0  0
   14.8079    4.6098    3.3899 O   0  0  0  0  0  0  0  0  0  0  0  0
   15.9678    4.7763    2.6825 C   0  0  1  0  0  0  0  0  0  0  0  0
   16.4777    6.0193    2.8770 F   0  0  0  0  0  0  0  0  0  0  0  0
   16.8505    3.8970    3.1630 F   0  0  0  0  0  0  0  0  0  0  0  0
   12.4541    4.4429    3.3070 C   0  0  0  0  0  0  0  0  0  0  0  0
   12.6294    3.3847    4.1236 O   0  0  0  0  0  0  0  0  0  0  0  0
   11.4991    2.6755    4.5860 C   0  0  0  0  0  0  0  0  0  0  0  0
   11.2203    4.9093    2.8497 C   0  0  0  0  0  0  0  0  0  0  0  0
    7.8364    1.4405    0.5706 C   0  0  0  0  0  0  0  0  0  0  0  0
    7.4759    0.1289    0.2714 C   0  0  0  0  0  0  0  0  0  0  0  0
    8.4537   -0.8231    0.2726 O   0  0  0  0  0  0  0  0  0  0  0  0
    8.7025   -1.5184   -0.9411 C   0  0  0  0  0  0  0  0  0  0  0  0
    4.4755   -2.9523   -0.5690 H   0  0  0  0  0  0  0  0  0  0  0  0
    4.0256   -1.3674   -1.2759 H   0  0  0  0  0  0  0  0  0  0  0  0
    3.8588   -1.6444    0.4906 H   0  0  0  0  0  0  0  0  0  0  0  0
    4.1130    0.6313   -0.0595 H   0  0  0  0  0  0  0  0  0  0  0  0
    4.7858    2.9482    0.4709 H   0  0  0  0  0  0  0  0  0  0  0  0
    8.3380    3.8510    1.1504 H   0  0  0  0  0  0  0  0  0  0  0  0
    7.5634    6.7517    0.5161 H   0  0  0  0  0  0  0  0  0  0  0  0
    6.8181    6.4753    3.4882 H   0  0  0  0  0  0  0  0  0  0  0  0
    5.7923    7.2316    2.2376 H   0  0  0  0  0  0  0  0  0  0  0  0
    7.3780    7.9576    2.6478 H   0  0  0  0  0  0  0  0  0  0  0  0
   12.2451    7.5564    0.9536 H   0  0  0  0  0  0  0  0  0  0  0  0
   14.4692    6.7693    1.7921 H   0  0  0  0  0  0  0  0  0  0  0  0
   15.8268    4.6250    1.5963 H   0  0  0  0  0  0  0  0  0  0  0  0
   11.8796    1.8729    5.2308 H   0  0  0  0  0  0  0  0  0  0  0  0
   10.9284    2.2264    3.7535 H   0  0  0  0  0  0  0  0  0  0  0  0
   10.8243    3.3215    5.1753 H   0  0  0  0  0  0  0  0  0  0  0  0
   10.2982    4.4200    3.1557 H   0  0  0  0  0  0  0  0  0  0  0  0
    8.8969    1.6399    0.7445 H   0  0  0  0  0  0  0  0  0  0  0  0
    9.5636   -2.1753   -0.7538 H   0  0  0  0  0  0  0  0  0  0  0  0
    8.9609   -0.8165   -1.7553 H   0  0  0  0  0  0  0  0  0  0  0  0
    7.8399   -2.1283   -1.2497 H   0  0  0  0  0  0  0  0  0  0  0  0
  1  2  1  0
  1 31  1  0
  1 32  1  0
  1 33  1  0
  2  3  1  0
  3  4  2  0
  3 28  1  0
  4  5  1  0
  4 34  1  0
  5  6  2  0
  5 35  1  0
  6  7  1  0
  6 27  1  0
  7  8  1  0
  7 36  1  0
  8  9  2  0
  8 10  1  0
 10 11  1  0
 10 12  1  0
 10 37  1  6
 11 38  1  0
 11 39  1  0
 11 40  1  0
 12 13  1  0
 13 14  2  0
 13 15  1  0
 15 16  2  0
 15 26  1  0
 16 17  1  0
 16 41  1  0
 17 18  2  0
 17 42  1  0
 18 19  1  0
 18 23  1  0
 19 20  1  0
 20 21  1  0
 20 22  1  0
 20 43  1  6
 23 24  1  0
 23 26  2  0
 24 25  1  0
 25 44  1  0
 25 45  1  0
 25 46  1  0
 26 47  1  0
 27 28  2  0
 27 48  1  0
 28 29  1  0
 29 30  1  0
 30 49  1  0
 30 50  1  0
 30 51  1  0
M  END

