
     RDKit          3D

 44 46  0  0  0  0  0  0  0  0999 V2000
    1.5910    1.1611   -0.1686 C   0  0  0  0  0  0  0  0  0  0  0  0
    2.3362    0.1023    0.3932 O   0  0  0  0  0  0  0  0  0  0  0  0
    3.1646    0.3519    1.4501 C   0  0  0  0  0  0  0  0  0  0  0  0
    3.3492    1.6009    2.0448 C   0  0  0  0  0  0  0  0  0  0  0  0
    4.2249    1.7420    3.1254 C   0  0  0  0  0  0  0  0  0  0  0  0
    4.9252    0.6360    3.6229 C   0  0  0  0  0  0  0  0  0  0  0  0
    5.8407    0.8023    4.7617 C   0  0  0  0  0  0  0  0  0  0  0  0
    6.6060   -0.1844    5.3859 C   0  0  0  0  0  0  0  0  0  0  0  0
    7.2884    0.4566    6.3870 N   0  0  0  0  0  0  0  0  0  0  0  0
    8.1803    0.0289    7.3262 C   0  0  0  0  0  0  0  0  0  0  0  0
    8.6891    0.9531    8.2036 C   0  0  0  0  0  0  0  0  0  0  0  0
    8.2625    2.3080    8.0908 C   0  0  0  0  0  0  0  0  0  0  0  0
    7.4029    2.7288    7.1884 N   0  0  0  0  0  0  0  0  0  0  0  0
    6.9008    1.8318    6.3272 C   0  0  0  0  0  0  0  0  0  0  0  0
    6.0347    2.0191    5.3493 N   0  0  0  0  0  0  0  0  0  0  0  0
    4.7393   -0.6241    3.0220 C   0  0  0  0  0  0  0  0  0  0  0  0
    3.8684   -0.7794    1.9423 C   0  0  0  0  0  0  0  0  0  0  0  0
    3.6238   -1.9972    1.2852 N   0  0  0  0  0  0  0  0  0  0  0  0
    4.1561   -3.2387    1.5402 C   0  0  0  0  0  0  0  0  0  0  0  0
    4.9553   -3.4648    2.4364 O   0  0  0  0  0  0  0  0  0  0  0  0
    3.6985   -4.3217    0.5701 C   0  0  0  0  0  0  0  0  0  0  0  0
    4.7007   -4.5762   -0.5837 C   0  0  1  0  0  0  0  0  0  0  0  0
    6.0347   -5.1400   -0.0799 C   0  0  0  0  0  0  0  0  0  0  0  0
    4.0720   -5.4969   -1.6371 C   0  0  0  0  0  0  0  0  0  0  0  0
    1.0051    0.7311   -0.9920 H   0  0  0  0  0  0  0  0  0  0  0  0
    2.2479    1.9531   -0.5696 H   0  0  0  0  0  0  0  0  0  0  0  0
    0.9012    1.6089    0.5684 H   0  0  0  0  0  0  0  0  0  0  0  0
    2.8131    2.4742    1.6726 H   0  0  0  0  0  0  0  0  0  0  0  0
    4.3750    2.7141    3.5967 H   0  0  0  0  0  0  0  0  0  0  0  0
    6.7125   -1.2501    5.2033 H   0  0  0  0  0  0  0  0  0  0  0  0
    8.4395   -1.0317    7.3254 H   0  0  0  0  0  0  0  0  0  0  0  0
    9.4045    0.6511    8.9691 H   0  0  0  0  0  0  0  0  0  0  0  0
    8.6609    3.0571    8.7854 H   0  0  0  0  0  0  0  0  0  0  0  0
    5.2632   -1.5073    3.3781 H   0  0  0  0  0  0  0  0  0  0  0  0
    2.9590   -1.9184    0.5238 H   0  0  0  0  0  0  0  0  0  0  0  0
    2.7135   -4.0637    0.1458 H   0  0  0  0  0  0  0  0  0  0  0  0
    3.5731   -5.2465    1.1561 H   0  0  0  0  0  0  0  0  0  0  0  0
    4.9005   -3.5999   -1.0648 H   0  0  0  0  0  0  0  0  0  0  0  0
    5.8904   -6.1396    0.3650 H   0  0  0  0  0  0  0  0  0  0  0  0
    6.4837   -4.4999    0.6924 H   0  0  0  0  0  0  0  0  0  0  0  0
    6.7518   -5.2432   -0.9104 H   0  0  0  0  0  0  0  0  0  0  0  0
    3.8227   -6.4799   -1.2019 H   0  0  0  0  0  0  0  0  0  0  0  0
    4.7660   -5.6712   -2.4750 H   0  0  0  0  0  0  0  0  0  0  0  0
    3.1441   -5.0702   -2.0522 H   0  0  0  0  0  0  0  0  0  0  0  0
  1  2  1  0
  1 25  1  0
  1 26  1  0
  1 27  1  0
  2  3  1  0
  3  4  2  0
  3 17  1  0
  4  5  1  0
  4 28  1  0
  5  6  2  0
  5 29  1  0
  6  7  1  0
  6 16  1  0
  7  8  2  0
  7 15  1  0
  8  9  1  0
  8 30  1  0
  9 10  1  0
  9 14  1  0
 10 11  2  0
 10 31  1  0
 11 12  1  0
 11 32  1  0
 12 13  2  0
 12 33  1  0
 13 14  1  0
 14 15  2  0
 16 17  2  0
 16 34  1  0
 17 18  1  0
 18 19  1  0
 18 35  1  0
 19 20  2  0
 19 21  1  0
 21 22  1  0
 21 36  1  0
 21 37  1  0
 22 23  1  0
 22 24  1  0
 22 38  1  6
 23 39  1  0
 23 40  1  0
 23 41  1  0
 24 42  1  0
 24 43  1  0
 24 44  1  0
M  END

