
     RDKit          3D

 61 63  0  0  0  0  0  0  0  0999 V2000
    1.1566   -1.3539   -1.1958 C   0  0  0  0  0  0  0  0  0  0  0  0
    2.4714   -0.9216   -0.5662 C   0  0  0  0  0  0  0  0  0  0  0  0
    3.0098    0.2578   -1.1842 O   0  0  0  0  0  0  0  0  0  0  0  0
    3.7414    0.0821   -2.3199 C   0  0  0  0  0  0  0  0  0  0  0  0
    3.9381   -1.0263   -2.7849 O   0  0  0  0  0  0  0  0  0  0  0  0
    4.2772    1.3121   -2.9082 C   0  0  0  0  0  0  0  0  0  0  0  0
    3.9942    2.6015   -2.5355 C   0  0  0  0  0  0  0  0  0  0  0  0
    3.0786    3.0290   -1.3806 C   0  0  0  0  0  0  0  0  0  0  0  0
    2.6679    4.4076   -1.4370 N   0  0  0  0  0  0  0  0  0  0  0  0
    1.4791    4.7536   -2.2029 C   0  0  0  0  0  0  0  0  0  0  0  0
    1.2440    6.2220   -1.8487 C   0  0  0  0  0  0  0  0  0  0  0  0
    1.6878    6.2852   -0.3802 C   0  0  0  0  0  0  0  0  0  0  0  0
    2.9039    5.3204   -0.3356 C   0  0  2  0  0  0  0  0  0  0  0  0
    4.2427    6.0859   -0.5239 C   0  0  0  0  0  0  0  0  0  0  0  0
    4.8043    6.0782   -1.6130 O   0  0  0  0  0  0  0  0  0  0  0  0
    4.7540    6.7784    0.5423 N   0  0  0  0  0  0  0  0  0  0  0  0
    4.1563    6.8746    1.8607 C   0  0  0  0  0  0  0  0  0  0  0  0
    5.9849    7.5355    0.3685 C   0  0  0  0  0  0  0  0  0  0  0  0
    4.5393    3.6504   -3.2262 N   0  0  0  0  0  0  0  0  0  0  0  0
    5.1909    3.5402   -4.4594 C   0  0  0  0  0  0  0  0  0  0  0  0
    5.5318    4.5207   -5.0937 O   0  0  0  0  0  0  0  0  0  0  0  0
    5.3547    2.2510   -4.8851 N   0  0  0  0  0  0  0  0  0  0  0  0
    5.2800    1.0656   -4.0334 C   0  0  1  0  0  0  0  0  0  0  0  0
    6.6524    0.6225   -3.5155 C   0  0  0  0  0  0  0  0  0  0  0  0
    7.5437    1.5361   -2.9219 C   0  0  0  0  0  0  0  0  0  0  0  0
    8.7838    1.1260   -2.4459 C   0  0  0  0  0  0  0  0  0  0  0  0
    9.1733   -0.2219   -2.5476 C   0  0  0  0  0  0  0  0  0  0  0  0
   10.4037   -0.5284   -2.0567 O   0  0  0  0  0  0  0  0  0  0  0  0
   10.8615   -1.8577   -2.1328 C   0  0  0  0  0  0  0  0  0  0  0  0
    8.2966   -1.1450   -3.1336 C   0  0  0  0  0  0  0  0  0  0  0  0
    7.0515   -0.7138   -3.6091 C   0  0  0  0  0  0  0  0  0  0  0  0
    0.7452   -2.2186   -0.6498 H   0  0  0  0  0  0  0  0  0  0  0  0
    1.3088   -1.6515   -2.2434 H   0  0  0  0  0  0  0  0  0  0  0  0
    0.4130   -0.5419   -1.1610 H   0  0  0  0  0  0  0  0  0  0  0  0
    3.2156   -1.7288   -0.6306 H   0  0  0  0  0  0  0  0  0  0  0  0
    2.3335   -0.6449    0.4900 H   0  0  0  0  0  0  0  0  0  0  0  0
    3.6125    2.8334   -0.4360 H   0  0  0  0  0  0  0  0  0  0  0  0
    2.2089    2.3522   -1.3672 H   0  0  0  0  0  0  0  0  0  0  0  0
    0.6065    4.1265   -1.9105 H   0  0  0  0  0  0  0  0  0  0  0  0
    1.6368    4.6010   -3.2848 H   0  0  0  0  0  0  0  0  0  0  0  0
    0.2009    6.5385   -1.9971 H   0  0  0  0  0  0  0  0  0  0  0  0
    1.8882    6.8653   -2.4684 H   0  0  0  0  0  0  0  0  0  0  0  0
    0.8913    5.8988    0.2770 H   0  0  0  0  0  0  0  0  0  0  0  0
    1.9294    7.3048   -0.0455 H   0  0  0  0  0  0  0  0  0  0  0  0
    2.9372    4.7763    0.6259 H   0  0  0  0  0  0  0  0  0  0  0  0
    3.2671    6.2437    1.9565 H   0  0  0  0  0  0  0  0  0  0  0  0
    3.8601    7.9156    2.0861 H   0  0  0  0  0  0  0  0  0  0  0  0
    4.8800    6.5612    2.6341 H   0  0  0  0  0  0  0  0  0  0  0  0
    6.3473    7.3903   -0.6551 H   0  0  0  0  0  0  0  0  0  0  0  0
    6.7537    7.1926    1.0829 H   0  0  0  0  0  0  0  0  0  0  0  0
    5.8095    8.6117    0.5445 H   0  0  0  0  0  0  0  0  0  0  0  0
    4.4126    4.5999   -2.8496 H   0  0  0  0  0  0  0  0  0  0  0  0
    5.8839    2.1763   -5.7470 H   0  0  0  0  0  0  0  0  0  0  0  0
    4.8851    0.2377   -4.6408 H   0  0  0  0  0  0  0  0  0  0  0  0
    7.2686    2.5900   -2.8306 H   0  0  0  0  0  0  0  0  0  0  0  0
    9.4795    1.8334   -1.9896 H   0  0  0  0  0  0  0  0  0  0  0  0
   11.8648   -1.8710   -1.6853 H   0  0  0  0  0  0  0  0  0  0  0  0
   10.9327   -2.2113   -3.1778 H   0  0  0  0  0  0  0  0  0  0  0  0
   10.2110   -2.5524   -1.5703 H   0  0  0  0  0  0  0  0  0  0  0  0
    8.5662   -2.1973   -3.2271 H   0  0  0  0  0  0  0  0  0  0  0  0
    6.3672   -1.4443   -4.0470 H   0  0  0  0  0  0  0  0  0  0  0  0
  1  2  1  0
  1 32  1  0
  1 33  1  0
  1 34  1  0
  2  3  1  0
  2 35  1  0
  2 36  1  0
  3  4  1  0
  4  5  2  0
  4  6  1  0
  6  7  2  0
  6 23  1  0
  7  8  1  0
  7 19  1  0
  8  9  1  0
  8 37  1  0
  8 38  1  0
  9 10  1  0
  9 13  1  0
 10 11  1  0
 10 39  1  0
 10 40  1  0
 11 12  1  0
 11 41  1  0
 11 42  1  0
 12 13  1  0
 12 43  1  0
 12 44  1  0
 13 14  1  0
 13 45  1  1
 14 15  2  0
 14 16  1  0
 16 17  1  0
 16 18  1  0
 17 46  1  0
 17 47  1  0
 17 48  1  0
 18 49  1  0
 18 50  1  0
 18 51  1  0
 19 20  1  0
 19 52  1  0
 20 21  2  0
 20 22  1  0
 22 23  1  0
 22 53  1  0
 23 24  1  0
 23 54  1  6
 24 25  2  0
 24 31  1  0
 25 26  1  0
 25 55  1  0
 26 27  2  0
 26 56  1  0
 27 28  1  0
 27 30  1  0
 28 29  1  0
 29 57  1  0
 29 58  1  0
 29 59  1  0
 30 31  2  0
 30 60  1  0
 31 61  1  0
M  END

