
     RDKit          3D

 40 42  0  0  0  0  0  0  0  0999 V2000
    0.7387    1.0631    0.1318 C   0  0  0  0  0  0  0  0  0  0  0  0
    2.1640    0.8226   -0.3258 C   0  0  0  0  0  0  0  0  0  0  0  0
    2.8762    2.0489   -0.2112 O   0  0  0  0  0  0  0  0  0  0  0  0
    4.1794    2.1119   -0.5539 C   0  0  0  0  0  0  0  0  0  0  0  0
    4.8039    3.3651   -0.4086 C   0  0  0  0  0  0  0  0  0  0  0  0
    6.1402    3.5327   -0.7361 C   0  0  0  0  0  0  0  0  0  0  0  0
    6.9195    2.4492   -1.2135 C   0  0  0  0  0  0  0  0  0  0  0  0
    8.3339    2.6187   -1.5436 C   0  0  0  0  0  0  0  0  0  0  0  0
    9.3516    1.7256   -1.6510 C   0  0  0  0  0  0  0  0  0  0  0  0
    9.3946    0.0311   -1.3781 Cl  0  0  0  0  0  0  0  0  0  0  0  0
   10.6296    2.4045   -2.0343 C   0  0  0  0  0  0  0  0  0  0  0  0
   11.7094    1.9005   -2.2077 O   0  0  0  0  0  0  0  0  0  0  0  0
   10.3112    3.7711   -2.1504 N   0  0  0  0  0  0  0  0  0  0  0  0
   11.2371    4.7969   -2.5067 C   0  0  0  0  0  0  0  0  0  0  0  0
   12.1815    4.5734   -3.5157 C   0  0  0  0  0  0  0  0  0  0  0  0
   13.0931    5.5772   -3.8500 C   0  0  0  0  0  0  0  0  0  0  0  0
   13.0809    6.8232   -3.2080 C   0  0  0  0  0  0  0  0  0  0  0  0
   14.0589    7.9120   -3.5759 C   0  0  0  0  0  0  0  0  0  0  0  0
   12.1212    7.0292   -2.2030 C   0  0  0  0  0  0  0  0  0  0  0  0
   11.2139    6.0338   -1.8454 C   0  0  0  0  0  0  0  0  0  0  0  0
    8.9491    3.9729   -1.8739 C   0  0  0  0  0  0  0  0  0  0  0  0
    8.3900    5.0429   -1.9035 O   0  0  0  0  0  0  0  0  0  0  0  0
    6.2772    1.2017   -1.3561 C   0  0  0  0  0  0  0  0  0  0  0  0
    4.9317    1.0275   -1.0386 C   0  0  0  0  0  0  0  0  0  0  0  0
    0.1543    0.1332    0.0567 H   0  0  0  0  0  0  0  0  0  0  0  0
    0.2545    1.8307   -0.4908 H   0  0  0  0  0  0  0  0  0  0  0  0
    0.7182    1.4044    1.1779 H   0  0  0  0  0  0  0  0  0  0  0  0
    2.1870    0.4729   -1.3748 H   0  0  0  0  0  0  0  0  0  0  0  0
    2.6514    0.0473    0.2941 H   0  0  0  0  0  0  0  0  0  0  0  0
    4.2078    4.1994   -0.0339 H   0  0  0  0  0  0  0  0  0  0  0  0
    6.5964    4.5150   -0.6298 H   0  0  0  0  0  0  0  0  0  0  0  0
   12.2153    3.6130   -4.0291 H   0  0  0  0  0  0  0  0  0  0  0  0
   13.8285    5.3833   -4.6357 H   0  0  0  0  0  0  0  0  0  0  0  0
   14.7506    7.5848   -4.3661 H   0  0  0  0  0  0  0  0  0  0  0  0
   14.6629    8.2191   -2.7057 H   0  0  0  0  0  0  0  0  0  0  0  0
   13.5368    8.8137   -3.9380 H   0  0  0  0  0  0  0  0  0  0  0  0
   12.0849    7.9901   -1.6812 H   0  0  0  0  0  0  0  0  0  0  0  0
   10.4791    6.2200   -1.0628 H   0  0  0  0  0  0  0  0  0  0  0  0
    6.8344    0.3467   -1.7366 H   0  0  0  0  0  0  0  0  0  0  0  0
    4.4795    0.0454   -1.1754 H   0  0  0  0  0  0  0  0  0  0  0  0
  1  2  1  0
  1 25  1  0
  1 26  1  0
  1 27  1  0
  2  3  1  0
  2 28  1  0
  2 29  1  0
  3  4  1  0
  4  5  2  0
  4 24  1  0
  5  6  1  0
  5 30  1  0
  6  7  2  0
  6 31  1  0
  7  8  1  0
  7 23  1  0
  8  9  2  0
  8 21  1  0
  9 10  1  0
  9 11  1  0
 11 12  2  0
 11 13  1  0
 13 14  1  0
 13 21  1  0
 14 15  2  0
 14 20  1  0
 15 16  1  0
 15 32  1  0
 16 17  2  0
 16 33  1  0
 17 18  1  0
 17 19  1  0
 18 34  1  0
 18 35  1  0
 18 36  1  0
 19 20  2  0
 19 37  1  0
 20 38  1  0
 21 22  2  0
 23 24  2  0
 23 39  1  0
 24 40  1  0
M  END

