
     RDKit          3D

 54 58  0  0  0  0  0  0  0  0999 V2000
    5.3521    1.1259    1.7604 C   0  0  0  0  0  0  0  0  0  0  0  0
    3.8771    0.6811    1.8717 C   0  0  1  0  0  0  0  0  0  0  0  0
    3.2677    1.1609    3.2073 C   0  0  0  0  0  0  0  0  0  0  0  0
    3.0598    1.2063    0.6809 C   0  0  0  0  0  0  0  0  0  0  0  0
    2.8571    2.5428    0.3576 C   0  0  0  0  0  0  0  0  0  0  0  0
    2.1048    2.9840   -0.7365 C   0  0  0  0  0  0  0  0  0  0  0  0
    1.3497    2.3505   -1.8093 C   0  0  0  0  0  0  0  0  0  0  0  0
    1.1075    1.1573   -2.1287 O   0  0  0  0  0  0  0  0  0  0  0  0
    0.9857    3.6473   -2.3649 C   0  0  0  0  0  0  0  0  0  0  0  0
    0.2353    4.0968   -3.4568 C   0  0  0  0  0  0  0  0  0  0  0  0
   -0.4076    3.2613   -4.3629 C   0  0  0  0  0  0  0  0  0  0  0  0
   -0.3976    1.9078   -4.3170 N   0  0  0  0  0  0  0  0  0  0  0  0
   -1.1322    1.3432   -5.3599 C   0  0  0  0  0  0  0  0  0  0  0  0
   -1.3525   -0.0047   -5.6444 C   0  0  0  0  0  0  0  0  0  0  0  0
   -2.1371   -0.3095   -6.7649 C   0  0  0  0  0  0  0  0  0  0  0  0
   -2.6783    0.7019   -7.5668 C   0  0  0  0  0  0  0  0  0  0  0  0
   -2.4441    2.0540   -7.2627 C   0  0  0  0  0  0  0  0  0  0  0  0
   -1.6682    2.3717   -6.1550 C   0  0  0  0  0  0  0  0  0  0  0  0
   -1.2403    3.7144   -5.5724 C   0  0  2  0  0  0  0  0  0  0  0  0
   -0.3702    4.5172   -6.5645 C   0  0  0  0  0  0  0  0  0  0  0  0
   -2.4541    4.5539   -5.1170 C   0  0  0  0  0  0  0  0  0  0  0  0
    1.7500    4.3251   -1.2802 C   0  0  0  0  0  0  0  0  0  0  0  0
    1.9831    5.4754   -0.9719 O   0  0  0  0  0  0  0  0  0  0  0  0
    2.5632    0.1533   -0.0112 N   0  0  0  0  0  0  0  0  0  0  0  0
    1.9747    0.2833   -0.8616 H   0  0  0  0  0  0  0  0  0  0  0  0
    2.9347   -1.0667    0.5539 C   0  0  0  0  0  0  0  0  0  0  0  0
    2.6202   -2.3583    0.1303 C   0  0  0  0  0  0  0  0  0  0  0  0
    3.1246   -3.4270    0.8837 C   0  0  0  0  0  0  0  0  0  0  0  0
    3.9139   -3.2046    2.0178 C   0  0  0  0  0  0  0  0  0  0  0  0
    4.2193   -1.8952    2.4275 C   0  0  0  0  0  0  0  0  0  0  0  0
    3.7265   -0.8256    1.6907 C   0  0  0  0  0  0  0  0  0  0  0  0
    5.4376    2.2217    1.8242 H   0  0  0  0  0  0  0  0  0  0  0  0
    5.7961    0.7999    0.8081 H   0  0  0  0  0  0  0  0  0  0  0  0
    5.9417    0.6879    2.5812 H   0  0  0  0  0  0  0  0  0  0  0  0
    3.3221    2.2572    3.2924 H   0  0  0  0  0  0  0  0  0  0  0  0
    3.8207    0.7237    4.0536 H   0  0  0  0  0  0  0  0  0  0  0  0
    2.2131    0.8599    3.2954 H   0  0  0  0  0  0  0  0  0  0  0  0
    3.3121    3.3039    0.9957 H   0  0  0  0  0  0  0  0  0  0  0  0
    0.1529    5.1765   -3.6009 H   0  0  0  0  0  0  0  0  0  0  0  0
    0.1115    1.3871   -3.5713 H   0  0  0  0  0  0  0  0  0  0  0  0
   -0.9293   -0.7921   -5.0172 H   0  0  0  0  0  0  0  0  0  0  0  0
   -2.3279   -1.3564   -7.0141 H   0  0  0  0  0  0  0  0  0  0  0  0
   -3.2868    0.4389   -8.4350 H   0  0  0  0  0  0  0  0  0  0  0  0
   -2.8701    2.8390   -7.8936 H   0  0  0  0  0  0  0  0  0  0  0  0
    0.5055    3.9352   -6.8883 H   0  0  0  0  0  0  0  0  0  0  0  0
   -0.0131    5.4523   -6.1060 H   0  0  0  0  0  0  0  0  0  0  0  0
   -0.9587    4.7771   -7.4586 H   0  0  0  0  0  0  0  0  0  0  0  0
   -3.0770    3.9982   -4.4004 H   0  0  0  0  0  0  0  0  0  0  0  0
   -3.0801    4.8149   -5.9849 H   0  0  0  0  0  0  0  0  0  0  0  0
   -2.1268    5.4893   -4.6373 H   0  0  0  0  0  0  0  0  0  0  0  0
    2.0041   -2.5294   -0.7548 H   0  0  0  0  0  0  0  0  0  0  0  0
    2.8956   -4.4509    0.5774 H   0  0  0  0  0  0  0  0  0  0  0  0
    4.2954   -4.0543    2.5887 H   0  0  0  0  0  0  0  0  0  0  0  0
    4.8366   -1.7289    3.3147 H   0  0  0  0  0  0  0  0  0  0  0  0
  2  1  1  6
  1 32  1  0
  1 33  1  0
  1 34  1  0
  2  3  1  0
  2  4  1  0
  2 31  1  0
  3 35  1  0
  3 36  1  0
  3 37  1  0
  4  5  1  0
  4 24  2  0
  5  6  2  0
  5 38  1  0
  6  7  1  0
  6 22  1  0
  7  8  2  0
  7  9  1  0
  9 10  1  0
  9 22  2  0
 10 11  2  0
 10 39  1  0
 11 12  1  0
 11 19  1  0
 12 13  1  0
 12 40  1  0
 13 14  1  0
 13 18  2  0
 14 15  2  0
 14 41  1  0
 15 16  1  0
 15 42  1  0
 16 17  2  0
 16 43  1  0
 17 18  1  0
 17 44  1  0
 18 19  1  0
 19 20  1  6
 19 21  1  0
 20 45  1  0
 20 46  1  0
 20 47  1  0
 21 48  1  0
 21 49  1  0
 21 50  1  0
 22 23  1  0
 24 25  1  0
 24 26  1  0
 26 27  2  0
 26 31  1  0
 27 28  1  0
 27 51  1  0
 28 29  2  0
 28 52  1  0
 29 30  1  0
 29 53  1  0
 30 31  2  0
 30 54  1  0
M  CHG  2  23  -1  24   1
M  END

