
     RDKit          3D

 49 53  0  0  0  0  0  0  0  0999 V2000
    1.0752    0.3274   -0.1015 N   0  0  0  0  0  0  0  0  0  0  0  0
    2.2301    0.2011   -0.1455 C   0  0  0  0  0  0  0  0  0  0  0  0
    3.6573    0.0902   -0.1835 C   0  0  0  0  0  0  0  0  0  0  0  0
    4.3109   -1.1799   -0.1518 C   0  0  0  0  0  0  0  0  0  0  0  0
    3.5691   -2.3646   -0.1689 N   0  0  0  0  0  0  0  0  0  0  0  0
    4.1678   -3.5841    0.3653 C   0  0  0  0  0  0  0  0  0  0  0  0
    3.0823   -4.5705    0.8106 C   0  0  0  0  0  0  0  0  0  0  0  0
    2.0943   -4.8730   -0.3200 C   0  0  0  0  0  0  0  0  0  0  0  0
    1.5322   -3.5709   -0.8993 C   0  0  0  0  0  0  0  0  0  0  0  0
    2.6602   -2.6194   -1.2963 C   0  0  0  0  0  0  0  0  0  0  0  0
    5.7162   -1.1795   -0.0530 C   0  0  0  0  0  0  0  0  0  0  0  0
    6.4903   -0.0085   -0.0046 C   0  0  0  0  0  0  0  0  0  0  0  0
    7.9689   -0.1521    0.1485 C   0  0  0  0  0  0  0  0  0  0  0  0
    8.7283   -0.8266   -0.8229 C   0  0  0  0  0  0  0  0  0  0  0  0
   10.1059   -1.0002   -0.6596 C   0  0  0  0  0  0  0  0  0  0  0  0
   10.7452   -0.5108    0.4827 C   0  0  0  0  0  0  0  0  0  0  0  0
    9.9982    0.1545    1.4607 C   0  0  0  0  0  0  0  0  0  0  0  0
    8.6231    0.3341    1.2946 C   0  0  0  0  0  0  0  0  0  0  0  0
    5.8329    1.2363   -0.1018 C   0  0  0  0  0  0  0  0  0  0  0  0
    4.4242    1.2620   -0.1773 C   0  0  0  0  0  0  0  0  0  0  0  0
    3.9209    2.6836   -0.2301 C   0  0  0  0  0  0  0  0  0  0  0  0
    5.1972    3.4906   -0.2317 C   0  0  0  0  0  0  0  0  0  0  0  0
    5.3545    4.8720   -0.3065 C   0  0  0  0  0  0  0  0  0  0  0  0
    6.6473    5.4106   -0.3261 C   0  0  0  0  0  0  0  0  0  0  0  0
    7.7627    4.5657   -0.2771 C   0  0  0  0  0  0  0  0  0  0  0  0
    7.6116    3.1774   -0.1963 C   0  0  0  0  0  0  0  0  0  0  0  0
    6.3202    2.6314   -0.1642 C   0  0  0  0  0  0  0  0  0  0  0  0
    4.8008   -3.3198    1.2245 H   0  0  0  0  0  0  0  0  0  0  0  0
    4.8252   -4.0747   -0.3875 H   0  0  0  0  0  0  0  0  0  0  0  0
    2.5414   -4.1317    1.6668 H   0  0  0  0  0  0  0  0  0  0  0  0
    3.5638   -5.4953    1.1703 H   0  0  0  0  0  0  0  0  0  0  0  0
    1.2808   -5.5235    0.0412 H   0  0  0  0  0  0  0  0  0  0  0  0
    2.6136   -5.4346   -1.1190 H   0  0  0  0  0  0  0  0  0  0  0  0
    0.8938   -3.0670   -0.1540 H   0  0  0  0  0  0  0  0  0  0  0  0
    0.9032   -3.7735   -1.7820 H   0  0  0  0  0  0  0  0  0  0  0  0
    2.2439   -1.6723   -1.6579 H   0  0  0  0  0  0  0  0  0  0  0  0
    3.2391   -3.0611   -2.1381 H   0  0  0  0  0  0  0  0  0  0  0  0
    6.2426   -2.1325   -0.0099 H   0  0  0  0  0  0  0  0  0  0  0  0
    8.2336   -1.2059   -1.7206 H   0  0  0  0  0  0  0  0  0  0  0  0
   10.6817   -1.5192   -1.4303 H   0  0  0  0  0  0  0  0  0  0  0  0
   11.8217   -0.6484    0.6123 H   0  0  0  0  0  0  0  0  0  0  0  0
   10.4889    0.5335    2.3611 H   0  0  0  0  0  0  0  0  0  0  0  0
    8.0438    0.8510    2.0636 H   0  0  0  0  0  0  0  0  0  0  0  0
    3.2743    2.9161    0.6351 H   0  0  0  0  0  0  0  0  0  0  0  0
    3.3040    2.8675   -1.1273 H   0  0  0  0  0  0  0  0  0  0  0  0
    4.4815    5.5287   -0.3565 H   0  0  0  0  0  0  0  0  0  0  0  0
    6.7856    6.4932   -0.3867 H   0  0  0  0  0  0  0  0  0  0  0  0
    8.7678    4.9947   -0.3036 H   0  0  0  0  0  0  0  0  0  0  0  0
    8.4930    2.5375   -0.1656 H   0  0  0  0  0  0  0  0  0  0  0  0
  1  2  3  0
  2  3  1  0
  3  4  2  0
  3 20  1  0
  4  5  1  0
  4 11  1  0
  5  6  1  0
  5 10  1  0
  6  7  1  0
  6 28  1  0
  6 29  1  0
  7  8  1  0
  7 30  1  0
  7 31  1  0
  8  9  1  0
  8 32  1  0
  8 33  1  0
  9 10  1  0
  9 34  1  0
  9 35  1  0
 10 36  1  0
 10 37  1  0
 11 12  2  0
 11 38  1  0
 12 13  1  0
 12 19  1  0
 13 14  2  0
 13 18  1  0
 14 15  1  0
 14 39  1  0
 15 16  2  0
 15 40  1  0
 16 17  1  0
 16 41  1  0
 17 18  2  0
 17 42  1  0
 18 43  1  0
 19 20  2  0
 19 27  1  0
 20 21  1  0
 21 22  1  0
 21 44  1  0
 21 45  1  0
 22 23  1  0
 22 27  2  0
 23 24  2  0
 23 46  1  0
 24 25  1  0
 24 47  1  0
 25 26  2  0
 25 48  1  0
 26 27  1  0
 26 49  1  0
M  END

