
     RDKit          3D

 79 80  0  0  0  0  0  0  0  0999 V2000
   -0.4125    4.4166    5.7498 C   0  0  0  0  0  0  0  0  0  0  0  0
    1.0678    4.7993    5.7865 C   0  0  0  0  0  0  0  0  0  0  0  0
    2.0138    3.5948    5.7527 C   0  0  0  0  0  0  0  0  0  0  0  0
    3.4984    3.9691    5.7894 C   0  0  0  0  0  0  0  0  0  0  0  0
    4.4423    2.7638    5.7551 C   0  0  0  0  0  0  0  0  0  0  0  0
    5.9270    3.1388    5.7923 C   0  0  0  0  0  0  0  0  0  0  0  0
    6.8628    1.9279    5.7564 C   0  0  0  0  0  0  0  0  0  0  0  0
    8.3340    2.3115    5.7952 C   0  0  0  0  0  0  0  0  0  0  0  0
    9.1036    1.1211    5.7556 O   0  0  0  0  0  0  0  0  0  0  0  0
   10.4571    1.1863    5.7796 C   0  0  0  0  0  0  0  0  0  0  0  0
   11.1967    2.3793    5.8428 C   0  0  0  0  0  0  0  0  0  0  0  0
   12.5919    2.3300    5.8625 C   0  0  0  0  0  0  0  0  0  0  0  0
   13.2810    1.1088    5.8203 C   0  0  0  0  0  0  0  0  0  0  0  0
   14.7621    1.0694    5.8416 C   0  0  0  0  0  0  0  0  0  0  0  0
   15.4287    2.2295    5.9028 N   0  0  0  0  0  0  0  0  0  0  0  0
   16.7602    2.2004    5.9218 C   0  0  0  0  0  0  0  0  0  0  0  0
   17.4714    0.9921    5.8785 C   0  0  0  0  0  0  0  0  0  0  0  0
   18.8132    0.8483    5.8926 O   0  0  0  0  0  0  0  0  0  0  0  0
   19.6404    2.0067    5.9544 C   0  0  0  0  0  0  0  0  0  0  0  0
   21.0950    1.5618    5.9534 C   0  0  0  0  0  0  0  0  0  0  0  0
   21.5396    0.7782    4.7075 C   0  0  0  0  0  0  0  0  0  0  0  0
   21.5007    1.5703    3.3902 C   0  0  0  0  0  0  0  0  0  0  0  0
   22.1574    0.6698    1.8438 Si  0  0  1  0  0  4  0  0  0  0  0  0
   21.9972    1.8459    0.3676 C   0  0  0  0  0  0  0  0  0  0  0  0
   23.9824    0.2190    2.0880 C   0  0  0  0  0  0  0  0  0  0  0  0
   21.1257   -0.9015    1.5499 C   0  0  0  0  0  0  0  0  0  0  0  0
   21.4856   -1.7368    0.3103 C   0  0  0  0  0  0  0  0  0  0  0  0
   20.6204   -2.9909    0.1329 C   0  0  0  0  0  0  0  0  0  0  0  0
   20.9825   -3.8171   -1.1021 C   0  0  0  0  0  0  0  0  0  0  0  0
   16.6847   -0.1736    5.8165 C   0  0  0  0  0  0  0  0  0  0  0  0
   15.3636   -0.1368    5.7983 N   0  0  0  0  0  0  0  0  0  0  0  0
   12.5264   -0.0801    5.7570 C   0  0  0  0  0  0  0  0  0  0  0  0
   11.1391   -0.0444    5.7369 C   0  0  0  0  0  0  0  0  0  0  0  0
   -1.0622    5.3060    5.7755 H   0  0  0  0  0  0  0  0  0  0  0  0
   -0.6840    3.7816    6.6099 H   0  0  0  0  0  0  0  0  0  0  0  0
   -0.6581    3.8518    4.8347 H   0  0  0  0  0  0  0  0  0  0  0  0
    1.2724    5.3954    6.6947 H   0  0  0  0  0  0  0  0  0  0  0  0
    1.2981    5.4650    4.9347 H   0  0  0  0  0  0  0  0  0  0  0  0
    1.8104    2.9976    4.8440 H   0  0  0  0  0  0  0  0  0  0  0  0
    1.7845    2.9278    6.6049 H   0  0  0  0  0  0  0  0  0  0  0  0
    3.7016    4.5658    6.6983 H   0  0  0  0  0  0  0  0  0  0  0  0
    3.7274    4.6361    4.9374 H   0  0  0  0  0  0  0  0  0  0  0  0
    4.2410    2.1671    4.8462 H   0  0  0  0  0  0  0  0  0  0  0  0
    4.2147    2.0963    6.6068 H   0  0  0  0  0  0  0  0  0  0  0  0
    6.1282    3.7344    6.7023 H   0  0  0  0  0  0  0  0  0  0  0  0
    6.1542    3.8066    4.9405 H   0  0  0  0  0  0  0  0  0  0  0  0
    6.6808    1.3329    4.8448 H   0  0  0  0  0  0  0  0  0  0  0  0
    6.6533    1.2593    6.6091 H   0  0  0  0  0  0  0  0  0  0  0  0
    8.5629    2.8827    6.7155 H   0  0  0  0  0  0  0  0  0  0  0  0
    8.5899    2.9593    4.9346 H   0  0  0  0  0  0  0  0  0  0  0  0
   10.6978    3.3479    5.8770 H   0  0  0  0  0  0  0  0  0  0  0  0
   13.1709    3.2534    5.9116 H   0  0  0  0  0  0  0  0  0  0  0  0
   17.2722    3.1668    5.9729 H   0  0  0  0  0  0  0  0  0  0  0  0
   19.4147    2.5773    6.8745 H   0  0  0  0  0  0  0  0  0  0  0  0
   19.4233    2.6654    5.0932 H   0  0  0  0  0  0  0  0  0  0  0  0
   21.2654    0.9466    6.8537 H   0  0  0  0  0  0  0  0  0  0  0  0
   21.7166    2.4676    6.0695 H   0  0  0  0  0  0  0  0  0  0  0  0
   20.9107   -0.1237    4.6221 H   0  0  0  0  0  0  0  0  0  0  0  0
   22.5658    0.4152    4.8907 H   0  0  0  0  0  0  0  0  0  0  0  0
   22.0808    2.5071    3.4989 H   0  0  0  0  0  0  0  0  0  0  0  0
   20.4663    1.8880    3.1621 H   0  0  0  0  0  0  0  0  0  0  0  0
   22.5660    2.7754    0.5377 H   0  0  0  0  0  0  0  0  0  0  0  0
   20.9454    2.1260    0.1897 H   0  0  0  0  0  0  0  0  0  0  0  0
   22.3816    1.3883   -0.5588 H   0  0  0  0  0  0  0  0  0  0  0  0
   24.5873    1.1166    2.3006 H   0  0  0  0  0  0  0  0  0  0  0  0
   24.4012   -0.2546    1.1847 H   0  0  0  0  0  0  0  0  0  0  0  0
   24.1220   -0.4847    2.9253 H   0  0  0  0  0  0  0  0  0  0  0  0
   20.0622   -0.5998    1.4965 H   0  0  0  0  0  0  0  0  0  0  0  0
   21.2029   -1.5342    2.4541 H   0  0  0  0  0  0  0  0  0  0  0  0
   22.5474   -2.0420    0.3593 H   0  0  0  0  0  0  0  0  0  0  0  0
   21.3990   -1.1140   -0.5993 H   0  0  0  0  0  0  0  0  0  0  0  0
   19.5580   -2.6903    0.0800 H   0  0  0  0  0  0  0  0  0  0  0  0
   20.7078   -3.6191    1.0383 H   0  0  0  0  0  0  0  0  0  0  0  0
   20.8687   -3.2271   -2.0273 H   0  0  0  0  0  0  0  0  0  0  0  0
   20.3413   -4.7082   -1.1964 H   0  0  0  0  0  0  0  0  0  0  0  0
   22.0289   -4.1639   -1.0607 H   0  0  0  0  0  0  0  0  0  0  0  0
   17.1815   -1.1512    5.7820 H   0  0  0  0  0  0  0  0  0  0  0  0
   13.0556   -1.0335    5.7241 H   0  0  0  0  0  0  0  0  0  0  0  0
   10.5480   -0.9613    5.6881 H   0  0  0  0  0  0  0  0  0  0  0  0
  1  2  1  0
  1 34  1  0
  1 35  1  0
  1 36  1  0
  2  3  1  0
  2 37  1  0
  2 38  1  0
  3  4  1  0
  3 39  1  0
  3 40  1  0
  4  5  1  0
  4 41  1  0
  4 42  1  0
  5  6  1  0
  5 43  1  0
  5 44  1  0
  6  7  1  0
  6 45  1  0
  6 46  1  0
  7  8  1  0
  7 47  1  0
  7 48  1  0
  8  9  1  0
  8 49  1  0
  8 50  1  0
  9 10  1  0
 10 11  2  0
 10 33  1  0
 11 12  1  0
 11 51  1  0
 12 13  2  0
 12 52  1  0
 13 14  1  0
 13 32  1  0
 14 15  2  0
 14 31  1  0
 15 16  1  0
 16 17  2  0
 16 53  1  0
 17 18  1  0
 17 30  1  0
 18 19  1  0
 19 20  1  0
 19 54  1  0
 19 55  1  0
 20 21  1  0
 20 56  1  0
 20 57  1  0
 21 22  1  0
 21 58  1  0
 21 59  1  0
 23 22  1  1
 22 60  1  0
 22 61  1  0
 23 24  1  0
 23 25  1  0
 23 26  1  0
 24 62  1  0
 24 63  1  0
 24 64  1  0
 25 65  1  0
 25 66  1  0
 25 67  1  0
 26 27  1  0
 26 68  1  0
 26 69  1  0
 27 28  1  0
 27 70  1  0
 27 71  1  0
 28 29  1  0
 28 72  1  0
 28 73  1  0
 29 74  1  0
 29 75  1  0
 29 76  1  0
 30 31  2  0
 30 77  1  0
 32 33  2  0
 32 78  1  0
 33 79  1  0
M  END

