
     RDKit          3D

 31 33  0  0  0  0  0  0  0  0999 V2000
    3.0621   -1.2748    0.2354 C   0  0  0  0  0  0  0  0  0  0  0  0
    2.4997    0.0104    0.0948 O   0  0  0  0  0  0  0  0  0  0  0  0
    2.9657    0.7954   -0.9952 C   0  0  1  0  0  0  0  0  0  0  0  0
    2.4947    0.2077   -2.3347 C   0  0  0  0  0  0  0  0  0  0  0  0
    3.2360    0.3408   -3.5165 C   0  0  0  0  0  0  0  0  0  0  0  0
    2.7693   -0.1610   -4.7494 C   0  0  0  0  0  0  0  0  0  0  0  0
    1.5415   -0.7950   -4.7502 C   0  0  0  0  0  0  0  0  0  0  0  0
    0.7921   -0.9274   -3.5789 C   0  0  0  0  0  0  0  0  0  0  0  0
    1.2341   -0.4389   -2.3654 C   0  0  0  0  0  0  0  0  0  0  0  0
   -0.3740   -1.5883   -3.8602 O   0  0  0  0  0  0  0  0  0  0  0  0
   -0.3466   -1.8893   -5.2519 C   0  0  0  0  0  0  0  0  0  0  0  0
    0.8646   -1.3682   -5.7921 O   0  0  0  0  0  0  0  0  0  0  0  0
    2.4172    2.2277   -0.7879 C   0  0  0  0  0  0  0  0  0  0  0  0
    3.4204    3.1324   -1.5190 C   0  0  0  0  0  0  0  0  0  0  0  0
    4.6586    2.3391   -1.6080 N   0  0  0  0  0  0  0  0  0  0  0  0
    4.4888    1.0652   -0.9214 C   0  0  0  0  0  0  0  0  0  0  0  0
    2.5343   -1.7671    1.0656 H   0  0  0  0  0  0  0  0  0  0  0  0
    4.1389   -1.2357    0.4876 H   0  0  0  0  0  0  0  0  0  0  0  0
    2.9406   -1.8917   -0.6738 H   0  0  0  0  0  0  0  0  0  0  0  0
    4.1863    0.8769   -3.4884 H   0  0  0  0  0  0  0  0  0  0  0  0
    3.3507   -0.0525   -5.6665 H   0  0  0  0  0  0  0  0  0  0  0  0
    0.6414   -0.5511   -1.4573 H   0  0  0  0  0  0  0  0  0  0  0  0
   -1.2117   -1.4170   -5.7529 H   0  0  0  0  0  0  0  0  0  0  0  0
   -0.3784   -2.9854   -5.3978 H   0  0  0  0  0  0  0  0  0  0  0  0
    2.4269    2.4140    0.2975 H   0  0  0  0  0  0  0  0  0  0  0  0
    1.3839    2.3384   -1.1453 H   0  0  0  0  0  0  0  0  0  0  0  0
    3.5671    4.0847   -0.9790 H   0  0  0  0  0  0  0  0  0  0  0  0
    3.0574    3.3930   -2.5303 H   0  0  0  0  0  0  0  0  0  0  0  0
    5.4908    2.8439   -1.3218 H   0  0  0  0  0  0  0  0  0  0  0  0
    4.7596    1.0916    0.1550 H   0  0  0  0  0  0  0  0  0  0  0  0
    5.0857    0.2689   -1.3971 H   0  0  0  0  0  0  0  0  0  0  0  0
  1  2  1  0
  1 17  1  0
  1 18  1  0
  1 19  1  0
  3  2  1  1
  3  4  1  0
  3 13  1  0
  3 16  1  0
  4  5  2  0
  4  9  1  0
  5  6  1  0
  5 20  1  0
  6  7  2  0
  6 21  1  0
  7  8  1  0
  7 12  1  0
  8  9  2  0
  8 10  1  0
  9 22  1  0
 10 11  1  0
 11 12  1  0
 11 23  1  0
 11 24  1  0
 13 14  1  0
 13 25  1  0
 13 26  1  0
 14 15  1  0
 14 27  1  0
 14 28  1  0
 15 16  1  0
 15 29  1  0
 16 30  1  0
 16 31  1  0
M  END

