
     RDKit          3D

 53 55  0  0  0  0  0  0  0  0999 V2000
    4.0171    2.9992   10.0780 C   0  0  0  0  0  0  0  0  0  0  0  0
    3.0852    3.1686    9.0363 O   0  0  0  0  0  0  0  0  0  0  0  0
    3.5073    3.6637    7.8427 C   0  0  0  0  0  0  0  0  0  0  0  0
    4.8262    4.0465    7.5577 C   0  0  0  0  0  0  0  0  0  0  0  0
    5.1547    4.5578    6.2982 C   0  0  0  0  0  0  0  0  0  0  0  0
    4.1875    4.6711    5.2937 C   0  0  0  0  0  0  0  0  0  0  0  0
    4.5003    5.2103    4.0205 N   0  0  0  0  0  0  0  0  0  0  0  0
    5.7476    4.6080    3.0245 S   0  0  1  0  0  0  0  0  0  0  0  0
    6.1659    3.2867    3.4935 O   0  0  0  0  0  0  0  0  0  0  0  0
    5.2384    4.8342    1.6693 O   0  0  0  0  0  0  0  0  0  0  0  0
    7.1131    5.7324    3.2959 C   0  0  0  0  0  0  0  0  0  0  0  0
    7.0435    7.0398    2.8043 C   0  0  0  0  0  0  0  0  0  0  0  0
    8.1123    7.9139    2.9845 C   0  0  0  0  0  0  0  0  0  0  0  0
    9.2719    7.4714    3.6548 C   0  0  0  0  0  0  0  0  0  0  0  0
   10.3869    8.2899    3.8728 N   0  0  0  0  0  0  0  0  0  0  0  0
   10.5862    9.6001    3.5091 C   0  0  0  0  0  0  0  0  0  0  0  0
    9.7795   10.2940    2.9214 O   0  0  0  0  0  0  0  0  0  0  0  0
   11.9775   10.1569    3.8413 C   0  0  0  0  0  0  0  0  0  0  0  0
   12.9094    9.4013    5.2336 S   0  0  0  0  0  0  0  0  0  0  0  0
   12.1239   10.1653    6.6547 C   0  0  0  0  0  0  0  0  0  0  0  0
   12.6634   11.3500    7.1896 C   0  0  0  0  0  0  0  0  0  0  0  0
   12.0943   11.9456    8.3082 C   0  0  0  0  0  0  0  0  0  0  0  0
   10.9700   11.3671    8.9274 C   0  0  0  0  0  0  0  0  0  0  0  0
   10.4857   12.0181   10.0087 O   0  0  0  0  0  0  0  0  0  0  0  0
    9.3547   11.5069   10.6816 C   0  0  0  0  0  0  0  0  0  0  0  0
   10.4318   10.1791    8.4065 C   0  0  0  0  0  0  0  0  0  0  0  0
   11.0133    9.5875    7.2804 C   0  0  0  0  0  0  0  0  0  0  0  0
    9.3327    6.1461    4.1286 C   0  0  0  0  0  0  0  0  0  0  0  0
    8.2603    5.2763    3.9496 C   0  0  0  0  0  0  0  0  0  0  0  0
    2.8703    4.2728    5.5824 C   0  0  0  0  0  0  0  0  0  0  0  0
    2.5303    3.7912    6.8414 C   0  0  0  0  0  0  0  0  0  0  0  0
    3.4635    2.5829   10.9306 H   0  0  0  0  0  0  0  0  0  0  0  0
    4.4737    3.9584   10.3847 H   0  0  0  0  0  0  0  0  0  0  0  0
    4.8244    2.2970    9.8001 H   0  0  0  0  0  0  0  0  0  0  0  0
    5.6100    3.9629    8.3107 H   0  0  0  0  0  0  0  0  0  0  0  0
    6.1809    4.8716    6.1028 H   0  0  0  0  0  0  0  0  0  0  0  0
    3.7022    5.4003    3.4176 H   0  0  0  0  0  0  0  0  0  0  0  0
    6.1517    7.3745    2.2712 H   0  0  0  0  0  0  0  0  0  0  0  0
    8.0715    8.9344    2.6110 H   0  0  0  0  0  0  0  0  0  0  0  0
   11.1596    7.8780    4.3943 H   0  0  0  0  0  0  0  0  0  0  0  0
   11.8689   11.2389    3.9948 H   0  0  0  0  0  0  0  0  0  0  0  0
   12.6148   10.0151    2.9517 H   0  0  0  0  0  0  0  0  0  0  0  0
   13.5394   11.8017    6.7186 H   0  0  0  0  0  0  0  0  0  0  0  0
   12.5029   12.8655    8.7311 H   0  0  0  0  0  0  0  0  0  0  0  0
    9.1459   12.1978   11.5090 H   0  0  0  0  0  0  0  0  0  0  0  0
    9.5441   10.5002   11.0951 H   0  0  0  0  0  0  0  0  0  0  0  0
    8.4707   11.4616   10.0208 H   0  0  0  0  0  0  0  0  0  0  0  0
    9.5650    9.7046    8.8663 H   0  0  0  0  0  0  0  0  0  0  0  0
   10.5868    8.6624    6.8877 H   0  0  0  0  0  0  0  0  0  0  0  0
   10.2359    5.7931    4.6343 H   0  0  0  0  0  0  0  0  0  0  0  0
    8.3072    4.2443    4.3012 H   0  0  0  0  0  0  0  0  0  0  0  0
    2.1025    4.3443    4.8069 H   0  0  0  0  0  0  0  0  0  0  0  0
    1.5067    3.4887    7.0709 H   0  0  0  0  0  0  0  0  0  0  0  0
  1  2  1  0
  1 32  1  0
  1 33  1  0
  1 34  1  0
  2  3  1  0
  3  4  2  0
  3 31  1  0
  4  5  1  0
  4 35  1  0
  5  6  2  0
  5 36  1  0
  6  7  1  0
  6 30  1  0
  8  7  1  1
  7 37  1  0
  8  9  2  0
  8 10  2  0
  8 11  1  0
 11 12  2  0
 11 29  1  0
 12 13  1  0
 12 38  1  0
 13 14  2  0
 13 39  1  0
 14 15  1  0
 14 28  1  0
 15 16  1  0
 15 40  1  0
 16 17  2  0
 16 18  1  0
 18 19  1  0
 18 41  1  0
 18 42  1  0
 19 20  1  0
 20 21  2  0
 20 27  1  0
 21 22  1  0
 21 43  1  0
 22 23  2  0
 22 44  1  0
 23 24  1  0
 23 26  1  0
 24 25  1  0
 25 45  1  0
 25 46  1  0
 25 47  1  0
 26 27  2  0
 26 48  1  0
 27 49  1  0
 28 29  2  0
 28 50  1  0
 29 51  1  0
 30 31  2  0
 30 52  1  0
 31 53  1  0
M  END

