
     RDKit          3D

 37 39  0  0  0  0  0  0  0  0999 V2000
    2.5139    0.7173   -3.1603 C   0  0  0  0  0  0  0  0  0  0  0  0
    2.9019    0.6646   -1.6832 C   0  0  0  0  0  0  0  0  0  0  0  0
    3.2281   -0.6838   -1.1993 N   0  0  0  0  0  0  0  0  0  0  0  0
    2.2329   -1.6637   -1.0837 C   0  0  0  0  0  0  0  0  0  0  0  0
    2.5180   -3.0366   -1.2865 C   0  0  0  0  0  0  0  0  0  0  0  0
    1.5178   -3.9999   -1.1552 C   0  0  0  0  0  0  0  0  0  0  0  0
    0.2025   -3.6490   -0.8342 C   0  0  0  0  0  0  0  0  0  0  0  0
   -0.0699   -2.2950   -0.6629 C   0  0  0  0  0  0  0  0  0  0  0  0
   -1.3220   -1.9151   -0.3631 F   0  0  0  0  0  0  0  0  0  0  0  0
    0.9022   -1.3065   -0.7811 C   0  0  0  0  0  0  0  0  0  0  0  0
    4.5857   -1.0133   -1.0961 C   0  0  0  0  0  0  0  0  0  0  0  0
    5.4839   -0.6084   -2.0300 N   0  0  0  0  0  0  0  0  0  0  0  0
    6.6613   -1.0751   -1.6241 C   0  0  0  0  0  0  0  0  0  0  0  0
    7.9494   -0.9661   -2.1978 C   0  0  0  0  0  0  0  0  0  0  0  0
    9.0209   -1.5799   -1.5835 C   0  0  0  0  0  0  0  0  0  0  0  0
    8.8324   -2.3236   -0.3848 C   0  0  0  0  0  0  0  0  0  0  0  0
    7.5846   -2.4301    0.1760 C   0  0  0  0  0  0  0  0  0  0  0  0
    6.5258   -1.7964   -0.4232 N   0  0  0  0  0  0  0  0  0  0  0  0
    5.1943   -1.7201   -0.0526 C   0  0  0  0  0  0  0  0  0  0  0  0
    4.6737   -2.2930    1.2227 C   0  0  0  0  0  0  0  0  0  0  0  0
    4.6919   -3.7127    1.2783 O   0  0  0  0  0  0  0  0  0  0  0  0
    2.2785    1.7527   -3.4558 H   0  0  0  0  0  0  0  0  0  0  0  0
    1.6278    0.0972   -3.3686 H   0  0  0  0  0  0  0  0  0  0  0  0
    3.3479    0.3573   -3.7805 H   0  0  0  0  0  0  0  0  0  0  0  0
    2.1037    1.0932   -1.0541 H   0  0  0  0  0  0  0  0  0  0  0  0
    3.7938    1.2819   -1.5130 H   0  0  0  0  0  0  0  0  0  0  0  0
    3.5225   -3.3358   -1.5877 H   0  0  0  0  0  0  0  0  0  0  0  0
    1.7639   -5.0508   -1.3307 H   0  0  0  0  0  0  0  0  0  0  0  0
   -0.5950   -4.3861   -0.7341 H   0  0  0  0  0  0  0  0  0  0  0  0
    0.6030   -0.2722   -0.6184 H   0  0  0  0  0  0  0  0  0  0  0  0
    8.0512   -0.3968   -3.1225 H   0  0  0  0  0  0  0  0  0  0  0  0
   10.0188   -1.5069   -2.0211 H   0  0  0  0  0  0  0  0  0  0  0  0
    9.6719   -2.8293    0.0945 H   0  0  0  0  0  0  0  0  0  0  0  0
    7.3587   -3.0174    1.0659 H   0  0  0  0  0  0  0  0  0  0  0  0
    3.6643   -1.8839    1.4023 H   0  0  0  0  0  0  0  0  0  0  0  0
    5.3057   -1.9599    2.0643 H   0  0  0  0  0  0  0  0  0  0  0  0
    4.0328   -4.0333    0.6466 H   0  0  0  0  0  0  0  0  0  0  0  0
  1  2  1  0
  1 22  1  0
  1 23  1  0
  1 24  1  0
  2  3  1  0
  2 25  1  0
  2 26  1  0
  3  4  1  0
  3 11  1  0
  4  5  2  0
  4 10  1  0
  5  6  1  0
  5 27  1  0
  6  7  2  0
  6 28  1  0
  7  8  1  0
  7 29  1  0
  8  9  1  0
  8 10  2  0
 10 30  1  0
 11 12  1  0
 11 19  2  0
 12 13  2  0
 13 14  1  0
 13 18  1  0
 14 15  2  0
 14 31  1  0
 15 16  1  0
 15 32  1  0
 16 17  2  0
 16 33  1  0
 17 18  1  0
 17 34  1  0
 18 19  1  0
 19 20  1  0
 20 21  1  0
 20 35  1  0
 20 36  1  0
 21 37  1  0
M  END

