
     RDKit          3D

 44 46  0  0  0  0  0  0  0  0999 V2000
    1.9116   -2.6138    1.3618 C   0  0  0  0  0  0  0  0  0  0  0  0
    1.7859   -1.3897    0.4556 C   0  0  0  0  0  0  0  0  0  0  0  0
    2.5429   -0.1585    0.9734 C   0  0  0  0  0  0  0  0  0  0  0  0
    3.9848   -0.3726    1.0845 N   0  0  0  0  0  0  0  0  0  0  0  0
    4.7317   -0.3026   -0.1701 C   0  0  0  0  0  0  0  0  0  0  0  0
    5.0691    1.1311   -0.6346 C   0  0  0  0  0  0  0  0  0  0  0  0
    5.5748    2.1047    0.4627 C   0  0  2  0  0  0  0  0  0  0  0  0
    7.0383    2.2436    0.5835 N   0  0  0  0  0  0  0  0  0  0  0  0
    8.0861    1.3277    0.5976 C   0  0  0  0  0  0  0  0  0  0  0  0
    7.8982   -0.0406    0.5042 N   0  0  0  0  0  0  0  0  0  0  0  0
    9.2747    1.8757    0.6412 N   0  0  0  0  0  0  0  0  0  0  0  0
    9.0487    3.2379    0.6675 C   0  0  0  0  0  0  0  0  0  0  0  0
    9.9489    4.3073    0.7207 C   0  0  0  0  0  0  0  0  0  0  0  0
    9.4370    5.6059    0.7630 C   0  0  0  0  0  0  0  0  0  0  0  0
    8.0503    5.8693    0.7550 C   0  0  0  0  0  0  0  0  0  0  0  0
    7.5331    7.2896    0.7929 C   0  0  0  0  0  0  0  0  0  0  0  0
    7.1444    4.7962    0.7044 C   0  0  0  0  0  0  0  0  0  0  0  0
    7.6558    3.4987    0.6535 C   0  0  0  0  0  0  0  0  0  0  0  0
    4.8589    1.8607    1.8137 C   0  0  0  0  0  0  0  0  0  0  0  0
    4.6557    0.3730    2.1406 C   0  0  0  0  0  0  0  0  0  0  0  0
    1.3901   -3.4861    0.9369 H   0  0  0  0  0  0  0  0  0  0  0  0
    1.4778   -2.4185    2.3575 H   0  0  0  0  0  0  0  0  0  0  0  0
    2.9693   -2.8803    1.5080 H   0  0  0  0  0  0  0  0  0  0  0  0
    0.7242   -1.1090    0.3382 H   0  0  0  0  0  0  0  0  0  0  0  0
    2.1386   -1.6398   -0.5608 H   0  0  0  0  0  0  0  0  0  0  0  0
    2.1645    0.0818    1.9819 H   0  0  0  0  0  0  0  0  0  0  0  0
    2.2830    0.7158    0.3368 H   0  0  0  0  0  0  0  0  0  0  0  0
    4.1529   -0.8048   -0.9601 H   0  0  0  0  0  0  0  0  0  0  0  0
    5.6582   -0.8857   -0.0657 H   0  0  0  0  0  0  0  0  0  0  0  0
    4.1505    1.5857   -1.0418 H   0  0  0  0  0  0  0  0  0  0  0  0
    5.7897    1.0990   -1.4664 H   0  0  0  0  0  0  0  0  0  0  0  0
    5.2750    3.1051    0.1246 H   0  0  0  0  0  0  0  0  0  0  0  0
    7.2341   -0.4343    1.1648 H   0  0  0  0  0  0  0  0  0  0  0  0
    8.7961   -0.5134    0.5686 H   0  0  0  0  0  0  0  0  0  0  0  0
   11.0245    4.1186    0.7319 H   0  0  0  0  0  0  0  0  0  0  0  0
   10.1304    6.4505    0.8070 H   0  0  0  0  0  0  0  0  0  0  0  0
    8.3497    8.0112    0.9435 H   0  0  0  0  0  0  0  0  0  0  0  0
    6.8038    7.4358    1.6075 H   0  0  0  0  0  0  0  0  0  0  0  0
    7.0219    7.5607   -0.1473 H   0  0  0  0  0  0  0  0  0  0  0  0
    6.0689    4.9931    0.7112 H   0  0  0  0  0  0  0  0  0  0  0  0
    3.8659    2.3399    1.7600 H   0  0  0  0  0  0  0  0  0  0  0  0
    5.4090    2.3726    2.6195 H   0  0  0  0  0  0  0  0  0  0  0  0
    4.0814    0.2696    3.0752 H   0  0  0  0  0  0  0  0  0  0  0  0
    5.6339   -0.1055    2.3424 H   0  0  0  0  0  0  0  0  0  0  0  0
  1  2  1  0
  1 21  1  0
  1 22  1  0
  1 23  1  0
  2  3  1  0
  2 24  1  0
  2 25  1  0
  3  4  1  0
  3 26  1  0
  3 27  1  0
  4  5  1  0
  4 20  1  0
  5  6  1  0
  5 28  1  0
  5 29  1  0
  6  7  1  0
  6 30  1  0
  6 31  1  0
  7  8  1  0
  7 19  1  0
  7 32  1  6
  8  9  1  0
  8 18  1  0
  9 10  1  0
  9 11  2  0
 10 33  1  0
 10 34  1  0
 11 12  1  0
 12 13  1  0
 12 18  2  0
 13 14  2  0
 13 35  1  0
 14 15  1  0
 14 36  1  0
 15 16  1  0
 15 17  2  0
 16 37  1  0
 16 38  1  0
 16 39  1  0
 17 18  1  0
 17 40  1  0
 19 20  1  0
 19 41  1  0
 19 42  1  0
 20 43  1  0
 20 44  1  0
M  END

