
     RDKit          3D

 49 53  0  0  0  0  0  0  0  0999 V2000
   18.9672   -0.5979    5.9118 C   0  0  0  0  0  0  0  0  0  0  0  0
   17.7174   -1.2388    5.8703 O   0  0  0  0  0  0  0  0  0  0  0  0
   16.5853   -0.5245    6.1453 C   0  0  0  0  0  0  0  0  0  0  0  0
   16.5915    0.8493    6.4832 C   0  0  0  0  0  0  0  0  0  0  0  0
   15.3988    1.5247    6.7550 C   0  0  0  0  0  0  0  0  0  0  0  0
   14.2003    0.8143    6.6850 C   0  0  0  0  0  0  0  0  0  0  0  0
   12.8912    1.2158    6.8991 N   0  0  0  0  0  0  0  0  0  0  0  0
   12.5944    2.1550    7.1252 H   0  0  0  0  0  0  0  0  0  0  0  0
   12.0570    0.1355    6.7020 C   0  0  0  0  0  0  0  0  0  0  0  0
   12.7926   -0.9758    6.3706 C   0  0  0  0  0  0  0  0  0  0  0  0
   14.1761   -0.5731    6.3444 C   0  0  0  0  0  0  0  0  0  0  0  0
   15.3832   -1.2358    6.0750 C   0  0  0  0  0  0  0  0  0  0  0  0
   12.1173   -2.2852    6.1043 C   0  0  0  0  0  0  0  0  0  0  0  0
   10.6806   -2.2392    6.6430 C   0  0  0  0  0  0  0  0  0  0  0  0
    9.9811   -1.0175    6.2134 N   0  0  0  0  0  0  0  0  0  0  0  0
    8.5387   -1.0918    6.3835 C   0  0  2  0  0  0  0  0  0  0  0  0
    8.2489   -1.0572    7.4646 H   0  0  0  0  0  0  0  0  0  0  0  0
    7.8835   -2.3197    5.7397 C   0  0  0  0  0  0  0  0  0  0  0  0
    6.5434   -1.8426    5.2168 C   0  0  0  0  0  0  0  0  0  0  0  0
    5.6115   -2.5203    4.8687 O   0  0  0  0  0  0  0  0  0  0  0  0
    6.5862   -0.4339    5.1795 N   0  0  0  0  0  0  0  0  0  0  0  0
    5.5465    0.3771    4.6283 C   0  0  0  0  0  0  0  0  0  0  0  0
    4.2042    0.0786    4.9010 C   0  0  0  0  0  0  0  0  0  0  0  0
    3.1946    0.8686    4.3521 C   0  0  0  0  0  0  0  0  0  0  0  0
    3.5191    1.9556    3.5457 C   0  0  0  0  0  0  0  0  0  0  0  0
    2.5475    2.7090    3.0314 F   0  0  0  0  0  0  0  0  0  0  0  0
    4.8584    2.2607    3.2740 C   0  0  0  0  0  0  0  0  0  0  0  0
    5.2406    3.6231    2.2637 Cl  0  0  0  0  0  0  0  0  0  0  0  0
    5.8732    1.4670    3.8102 C   0  0  0  0  0  0  0  0  0  0  0  0
    7.7665    0.0821    5.7427 C   0  0  0  0  0  0  0  0  0  0  0  0
    8.0575    1.2530    5.7475 O   0  0  0  0  0  0  0  0  0  0  0  0
   10.5702    0.1728    6.8442 C   0  0  0  0  0  0  0  0  0  0  0  0
   19.7193   -1.3576    5.6571 H   0  0  0  0  0  0  0  0  0  0  0  0
   19.1976   -0.1958    6.9163 H   0  0  0  0  0  0  0  0  0  0  0  0
   19.0376    0.2283    5.1796 H   0  0  0  0  0  0  0  0  0  0  0  0
   17.5298    1.4010    6.5365 H   0  0  0  0  0  0  0  0  0  0  0  0
   15.4174    2.5862    7.0152 H   0  0  0  0  0  0  0  0  0  0  0  0
   15.4162   -2.2944    5.8096 H   0  0  0  0  0  0  0  0  0  0  0  0
   12.6525   -3.1219    6.5860 H   0  0  0  0  0  0  0  0  0  0  0  0
   12.0968   -2.5079    5.0213 H   0  0  0  0  0  0  0  0  0  0  0  0
   10.6992   -2.3107    7.7549 H   0  0  0  0  0  0  0  0  0  0  0  0
   10.1337   -3.1182    6.2783 H   0  0  0  0  0  0  0  0  0  0  0  0
    7.7417   -3.1834    6.4018 H   0  0  0  0  0  0  0  0  0  0  0  0
    8.4726   -2.6475    4.8669 H   0  0  0  0  0  0  0  0  0  0  0  0
    3.9474   -0.7759    5.5244 H   0  0  0  0  0  0  0  0  0  0  0  0
    2.1413    0.6555    4.5441 H   0  0  0  0  0  0  0  0  0  0  0  0
    6.9105    1.7163    3.5975 H   0  0  0  0  0  0  0  0  0  0  0  0
   10.2914    0.2256    7.9265 H   0  0  0  0  0  0  0  0  0  0  0  0
   10.1540    1.0743    6.3763 H   0  0  0  0  0  0  0  0  0  0  0  0
  1  2  1  0
  1 33  1  0
  1 34  1  0
  1 35  1  0
  2  3  1  0
  3  4  2  0
  3 12  1  0
  4  5  1  0
  4 36  1  0
  5  6  2  0
  5 37  1  0
  6  7  1  0
  6 11  1  0
  7  8  1  0
  7  9  1  0
  9 10  2  0
  9 32  1  0
 10 11  1  0
 10 13  1  0
 11 12  2  0
 12 38  1  0
 13 14  1  0
 13 39  1  0
 13 40  1  0
 14 15  1  0
 14 41  1  0
 14 42  1  0
 15 16  1  0
 15 32  1  0
 16 17  1  1
 16 18  1  0
 16 30  1  0
 18 19  1  0
 18 43  1  0
 18 44  1  0
 19 20  2  0
 19 21  1  0
 21 22  1  0
 21 30  1  0
 22 23  2  0
 22 29  1  0
 23 24  1  0
 23 45  1  0
 24 25  2  0
 24 46  1  0
 25 26  1  0
 25 27  1  0
 27 28  1  0
 27 29  2  0
 29 47  1  0
 30 31  2  0
 32 48  1  0
 32 49  1  0
M  END

