
     RDKit          3D

 55 58  0  0  0  0  0  0  0  0999 V2000
    1.9904    0.7681    1.9196 C   0  0  0  0  0  0  0  0  0  0  0  0
    2.9139    0.5274    0.8808 O   0  0  0  0  0  0  0  0  0  0  0  0
    2.9823    1.3940   -0.1647 C   0  0  0  0  0  0  0  0  0  0  0  0
    2.1695    2.5255   -0.3004 C   0  0  0  0  0  0  0  0  0  0  0  0
    2.3489    3.3856   -1.3872 C   0  0  0  0  0  0  0  0  0  0  0  0
    3.3331    3.1219   -2.3344 C   0  0  0  0  0  0  0  0  0  0  0  0
    4.1475    1.9815   -2.2338 C   0  0  0  0  0  0  0  0  0  0  0  0
    5.2461    1.7877   -3.2869 C   0  0  1  0  0  0  0  0  0  0  0  0
    6.6074    2.0343   -2.6673 C   0  0  0  0  0  0  0  0  0  0  0  0
    7.0818    3.2566   -2.4925 N   0  0  0  0  0  0  0  0  0  0  0  0
    8.2626    3.1284   -1.8597 N   0  0  0  0  0  0  0  0  0  0  0  0
    8.5352    1.8893   -1.6466 N   0  0  0  0  0  0  0  0  0  0  0  0
    7.5116    1.1681   -2.1471 N   0  0  0  0  0  0  0  0  0  0  0  0
    7.5502   -0.2887   -2.0792 C   0  0  0  0  0  0  0  0  0  0  0  0
    8.7031   -0.8854   -2.8291 C   0  0  0  0  0  0  0  0  0  0  0  0
   10.0280   -0.5740   -2.9673 C   0  0  0  0  0  0  0  0  0  0  0  0
   10.5987   -1.6046   -3.7871 C   0  0  0  0  0  0  0  0  0  0  0  0
    9.5816   -2.4669   -4.0771 C   0  0  0  0  0  0  0  0  0  0  0  0
    8.4259   -2.0387   -3.5042 O   0  0  0  0  0  0  0  0  0  0  0  0
    5.1776    0.5393   -4.0573 N   0  0  0  0  0  0  0  0  0  0  0  0
    6.0911    0.5742   -5.2073 C   0  0  0  0  0  0  0  0  0  0  0  0
    6.0678   -0.7625   -5.9624 C   0  0  0  0  0  0  0  0  0  0  0  0
    4.7360   -1.1693   -6.3899 N   0  0  0  0  0  0  0  0  0  0  0  0
    4.2509   -0.5390   -7.6035 C   0  0  0  0  0  0  0  0  0  0  0  0
    3.8210   -1.1309   -5.2591 C   0  0  0  0  0  0  0  0  0  0  0  0
    3.8217    0.2051   -4.5026 C   0  0  0  0  0  0  0  0  0  0  0  0
    3.9657    1.1083   -1.1467 C   0  0  0  0  0  0  0  0  0  0  0  0
    4.7930    0.0302   -1.0252 O   0  0  0  0  0  0  0  0  0  0  0  0
    4.2343   -1.2703   -0.8781 C   0  0  0  0  0  0  0  0  0  0  0  0
    2.1263   -0.0399    2.6509 H   0  0  0  0  0  0  0  0  0  0  0  0
    0.9470    0.7502    1.5563 H   0  0  0  0  0  0  0  0  0  0  0  0
    2.1780    1.7362    2.4169 H   0  0  0  0  0  0  0  0  0  0  0  0
    1.4087    2.7507    0.4468 H   0  0  0  0  0  0  0  0  0  0  0  0
    1.7193    4.2730   -1.4829 H   0  0  0  0  0  0  0  0  0  0  0  0
    3.4824    3.8076   -3.1710 H   0  0  0  0  0  0  0  0  0  0  0  0
    5.1292    2.6532   -3.9721 H   0  0  0  0  0  0  0  0  0  0  0  0
    6.6084   -0.6499   -2.5046 H   0  0  0  0  0  0  0  0  0  0  0  0
    7.5746   -0.5650   -1.0130 H   0  0  0  0  0  0  0  0  0  0  0  0
   10.5234    0.2892   -2.5306 H   0  0  0  0  0  0  0  0  0  0  0  0
   11.6332   -1.6896   -4.1137 H   0  0  0  0  0  0  0  0  0  0  0  0
    9.5175   -3.3851   -4.6549 H   0  0  0  0  0  0  0  0  0  0  0  0
    7.1169    0.7741   -4.8609 H   0  0  0  0  0  0  0  0  0  0  0  0
    5.8227    1.4103   -5.8934 H   0  0  0  0  0  0  0  0  0  0  0  0
    6.4771   -1.5412   -5.2961 H   0  0  0  0  0  0  0  0  0  0  0  0
    6.7321   -0.7014   -6.8392 H   0  0  0  0  0  0  0  0  0  0  0  0
    4.9652   -0.7200   -8.4232 H   0  0  0  0  0  0  0  0  0  0  0  0
    4.0900    0.5602   -7.5441 H   0  0  0  0  0  0  0  0  0  0  0  0
    3.2906   -0.9939   -7.8968 H   0  0  0  0  0  0  0  0  0  0  0  0
    4.1124   -1.9265   -4.5489 H   0  0  0  0  0  0  0  0  0  0  0  0
    2.7997   -1.3583   -5.6054 H   0  0  0  0  0  0  0  0  0  0  0  0
    3.1565    0.1294   -3.6311 H   0  0  0  0  0  0  0  0  0  0  0  0
    3.4036    1.0099   -5.1502 H   0  0  0  0  0  0  0  0  0  0  0  0
    5.0023   -1.9823   -1.2142 H   0  0  0  0  0  0  0  0  0  0  0  0
    3.3383   -1.3952   -1.5097 H   0  0  0  0  0  0  0  0  0  0  0  0
    3.9677   -1.4813    0.1670 H   0  0  0  0  0  0  0  0  0  0  0  0
  1  2  1  0
  1 30  1  0
  1 31  1  0
  1 32  1  0
  2  3  1  0
  3  4  2  0
  3 27  1  0
  4  5  1  0
  4 33  1  0
  5  6  2  0
  5 34  1  0
  6  7  1  0
  6 35  1  0
  7  8  1  0
  7 27  2  0
  8  9  1  0
  8 20  1  0
  8 36  1  6
  9 10  2  0
  9 13  1  0
 10 11  1  0
 11 12  2  0
 12 13  1  0
 13 14  1  0
 14 15  1  0
 14 37  1  0
 14 38  1  0
 15 16  2  0
 15 19  1  0
 16 17  1  0
 16 39  1  0
 17 18  2  0
 17 40  1  0
 18 19  1  0
 18 41  1  0
 20 21  1  0
 20 26  1  0
 21 22  1  0
 21 42  1  0
 21 43  1  0
 22 23  1  0
 22 44  1  0
 22 45  1  0
 23 24  1  0
 23 25  1  0
 24 46  1  0
 24 47  1  0
 24 48  1  0
 25 26  1  0
 25 49  1  0
 25 50  1  0
 26 51  1  0
 26 52  1  0
 27 28  1  0
 28 29  1  0
 29 53  1  0
 29 54  1  0
 29 55  1  0
M  END

