
     RDKit          3D

 54 56  0  0  0  0  0  0  0  0999 V2000
    4.2456   -1.0216    7.8203 C   0  0  0  0  0  0  0  0  0  0  0  0
    5.5120   -1.5700    7.1613 C   0  0  0  0  0  0  0  0  0  0  0  0
    5.3362   -1.9018    5.6761 C   0  0  0  0  0  0  0  0  0  0  0  0
    6.6002   -2.4513    5.0089 C   0  0  0  0  0  0  0  0  0  0  0  0
    6.4243   -2.7825    3.5241 C   0  0  0  0  0  0  0  0  0  0  0  0
    7.6892   -3.3376    2.8632 C   0  0  0  0  0  0  0  0  0  0  0  0
    7.5042   -3.6575    1.3768 C   0  0  0  0  0  0  0  0  0  0  0  0
    8.7266   -4.2569    0.6788 C   0  0  0  0  0  0  0  0  0  0  0  0
    9.1564   -5.5581    1.2349 N   0  0  0  0  0  0  0  0  0  0  0  0
    8.2236   -6.5936    1.4281 C   0  0  0  0  0  0  0  0  0  0  0  0
    7.3214   -7.0031    0.4319 C   0  0  0  0  0  0  0  0  0  0  0  0
    7.3488   -6.4267   -0.7703 F   0  0  0  0  0  0  0  0  0  0  0  0
    6.3821   -8.0100    0.6623 C   0  0  0  0  0  0  0  0  0  0  0  0
    5.5367   -8.3676   -0.2992 F   0  0  0  0  0  0  0  0  0  0  0  0
    6.3528   -8.6678    1.8943 C   0  0  0  0  0  0  0  0  0  0  0  0
    5.4745   -9.6391    2.1117 F   0  0  0  0  0  0  0  0  0  0  0  0
    7.2522   -8.2964    2.8975 C   0  0  0  0  0  0  0  0  0  0  0  0
    7.2194   -8.9078    4.0773 F   0  0  0  0  0  0  0  0  0  0  0  0
    8.1585   -7.2618    2.6646 C   0  0  0  0  0  0  0  0  0  0  0  0
    8.9798   -6.8967    3.6503 F   0  0  0  0  0  0  0  0  0  0  0  0
   10.5219   -5.8500    1.3734 C   0  0  0  0  0  0  0  0  0  0  0  0
   11.3757   -5.0147    2.1494 C   0  0  0  0  0  0  0  0  0  0  0  0
   10.8580   -3.9430    2.7506 F   0  0  0  0  0  0  0  0  0  0  0  0
   12.7174   -5.2788    2.3088 C   0  0  0  0  0  0  0  0  0  0  0  0
   13.4431   -4.4432    3.0498 F   0  0  0  0  0  0  0  0  0  0  0  0
   13.3140   -6.4285    1.7242 C   0  0  0  0  0  0  0  0  0  0  0  0
   14.6907   -6.7463    1.8748 C   0  0  0  0  0  0  0  0  0  0  0  0
   15.4979   -5.9614    2.5834 F   0  0  0  0  0  0  0  0  0  0  0  0
   15.2254   -7.8752    1.2887 C   0  0  0  0  0  0  0  0  0  0  0  0
   16.5116   -8.1691    1.4305 F   0  0  0  0  0  0  0  0  0  0  0  0
   14.4057   -8.7395    0.5281 C   0  0  0  0  0  0  0  0  0  0  0  0
   14.9476   -9.8202   -0.0197 F   0  0  0  0  0  0  0  0  0  0  0  0
   13.0644   -8.4632    0.3610 C   0  0  0  0  0  0  0  0  0  0  0  0
   12.3361   -9.3117   -0.3601 F   0  0  0  0  0  0  0  0  0  0  0  0
   12.4749   -7.3085    0.9492 C   0  0  0  0  0  0  0  0  0  0  0  0
   11.1068   -6.9637    0.7798 C   0  0  0  0  0  0  0  0  0  0  0  0
   10.3330   -7.7501    0.0244 F   0  0  0  0  0  0  0  0  0  0  0  0
    4.4087   -0.7946    8.8860 H   0  0  0  0  0  0  0  0  0  0  0  0
    3.4154   -1.7452    7.7579 H   0  0  0  0  0  0  0  0  0  0  0  0
    3.9085   -0.0926    7.3303 H   0  0  0  0  0  0  0  0  0  0  0  0
    5.8444   -2.4772    7.6983 H   0  0  0  0  0  0  0  0  0  0  0  0
    6.3332   -0.8389    7.2745 H   0  0  0  0  0  0  0  0  0  0  0  0
    5.0037   -0.9945    5.1374 H   0  0  0  0  0  0  0  0  0  0  0  0
    4.5148   -2.6339    5.5616 H   0  0  0  0  0  0  0  0  0  0  0  0
    6.9327   -3.3587    5.5465 H   0  0  0  0  0  0  0  0  0  0  0  0
    7.4214   -1.7196    5.1237 H   0  0  0  0  0  0  0  0  0  0  0  0
    6.0955   -1.8751    2.9838 H   0  0  0  0  0  0  0  0  0  0  0  0
    5.6012   -3.5124    3.4084 H   0  0  0  0  0  0  0  0  0  0  0  0
    8.0173   -4.2453    3.3980 H   0  0  0  0  0  0  0  0  0  0  0  0
    8.5151   -2.6140    2.9800 H   0  0  0  0  0  0  0  0  0  0  0  0
    7.2409   -2.7371    0.8261 H   0  0  0  0  0  0  0  0  0  0  0  0
    6.6383   -4.3303    1.2451 H   0  0  0  0  0  0  0  0  0  0  0  0
    9.5808   -3.5741    0.7815 H   0  0  0  0  0  0  0  0  0  0  0  0
    8.5246   -4.3604   -0.4008 H   0  0  0  0  0  0  0  0  0  0  0  0
  1  2  1  0
  1 38  1  0
  1 39  1  0
  1 40  1  0
  2  3  1  0
  2 41  1  0
  2 42  1  0
  3  4  1  0
  3 43  1  0
  3 44  1  0
  4  5  1  0
  4 45  1  0
  4 46  1  0
  5  6  1  0
  5 47  1  0
  5 48  1  0
  6  7  1  0
  6 49  1  0
  6 50  1  0
  7  8  1  0
  7 51  1  0
  7 52  1  0
  8  9  1  0
  8 53  1  0
  8 54  1  0
  9 10  1  0
  9 21  1  0
 10 11  2  0
 10 19  1  0
 11 12  1  0
 11 13  1  0
 13 14  1  0
 13 15  2  0
 15 16  1  0
 15 17  1  0
 17 18  1  0
 17 19  2  0
 19 20  1  0
 21 22  2  0
 21 36  1  0
 22 23  1  0
 22 24  1  0
 24 25  1  0
 24 26  2  0
 26 27  1  0
 26 35  1  0
 27 28  1  0
 27 29  2  0
 29 30  1  0
 29 31  1  0
 31 32  1  0
 31 33  2  0
 33 34  1  0
 33 35  1  0
 35 36  2  0
 36 37  1  0
M  END

