
     RDKit          3D

 49 53  0  0  0  0  0  0  0  0999 V2000
    1.5462   -0.6103   -0.9724 C   0  0  0  0  0  0  0  0  0  0  0  0
    2.5940   -0.4021   -0.0541 O   0  0  0  0  0  0  0  0  0  0  0  0
    3.1602   -1.4705    0.5658 C   0  0  0  0  0  0  0  0  0  0  0  0
    2.7608   -2.8075    0.3703 C   0  0  0  0  0  0  0  0  0  0  0  0
    3.4138   -3.8207    1.0562 C   0  0  0  0  0  0  0  0  0  0  0  0
    4.4766   -3.5739    1.9551 C   0  0  0  0  0  0  0  0  0  0  0  0
    5.1731   -4.6198    2.6769 C   0  0  0  0  0  0  0  0  0  0  0  0
    6.1812   -4.3146    3.5768 C   0  0  0  0  0  0  0  0  0  0  0  0
    6.5933   -2.9557    3.8167 C   0  0  0  0  0  0  0  0  0  0  0  0
    7.6199   -2.6022    4.7274 C   0  0  0  0  0  0  0  0  0  0  0  0
    8.0132   -1.2902    4.9392 C   0  0  0  0  0  0  0  0  0  0  0  0
    7.3756   -0.2537    4.2271 C   0  0  0  0  0  0  0  0  0  0  0  0
    7.6820    1.0636    4.3543 O   0  0  0  0  0  0  0  0  0  0  0  0
    8.6977    1.4551    5.2485 C   0  0  0  0  0  0  0  0  0  0  0  0
    6.3604   -0.5689    3.3277 C   0  0  0  0  0  0  0  0  0  0  0  0
    5.9457   -1.8950    3.1007 C   0  0  0  0  0  0  0  0  0  0  0  0
    4.8686   -2.2104    2.1602 C   0  0  0  0  0  0  0  0  0  0  0  0
    4.1969   -1.1947    1.4524 C   0  0  0  0  0  0  0  0  0  0  0  0
    6.7485   -5.5836    4.2260 C   0  0  1  0  0  0  0  0  0  0  0  0
    8.2433   -5.8084    3.8925 C   0  0  0  0  0  0  0  0  0  0  0  0
    6.5064   -5.6270    5.7541 C   0  0  0  0  0  0  0  0  0  0  0  0
    5.9140   -6.6601    3.5480 C   0  0  0  0  0  0  0  0  0  0  0  0
    5.9884   -8.0366    3.7383 C   0  0  0  0  0  0  0  0  0  0  0  0
    5.1418   -8.8794    3.0072 C   0  0  0  0  0  0  0  0  0  0  0  0
    4.2380   -8.3305    2.0933 C   0  0  0  0  0  0  0  0  0  0  0  0
    4.1602   -6.9465    1.9009 C   0  0  0  0  0  0  0  0  0  0  0  0
    4.9980   -6.0903    2.6355 C   0  0  0  0  0  0  0  0  0  0  0  0
    1.2601    0.3804   -1.3510 H   0  0  0  0  0  0  0  0  0  0  0  0
    0.6644   -1.0764   -0.4961 H   0  0  0  0  0  0  0  0  0  0  0  0
    1.8616   -1.2391   -1.8249 H   0  0  0  0  0  0  0  0  0  0  0  0
    1.9461   -3.0619   -0.3077 H   0  0  0  0  0  0  0  0  0  0  0  0
    3.0741   -4.8380    0.8901 H   0  0  0  0  0  0  0  0  0  0  0  0
    8.1302   -3.3804    5.2906 H   0  0  0  0  0  0  0  0  0  0  0  0
    8.8099   -1.0799    5.6527 H   0  0  0  0  0  0  0  0  0  0  0  0
    8.7671    2.5494    5.1836 H   0  0  0  0  0  0  0  0  0  0  0  0
    9.6774    1.0205    4.9784 H   0  0  0  0  0  0  0  0  0  0  0  0
    8.4617    1.1755    6.2915 H   0  0  0  0  0  0  0  0  0  0  0  0
    5.8986    0.2671    2.8050 H   0  0  0  0  0  0  0  0  0  0  0  0
    4.4637   -0.1464    1.5765 H   0  0  0  0  0  0  0  0  0  0  0  0
    8.8887   -5.0374    4.3370 H   0  0  0  0  0  0  0  0  0  0  0  0
    8.4051   -5.7987    2.8040 H   0  0  0  0  0  0  0  0  0  0  0  0
    8.5775   -6.7851    4.2766 H   0  0  0  0  0  0  0  0  0  0  0  0
    7.0664   -4.8441    6.2855 H   0  0  0  0  0  0  0  0  0  0  0  0
    6.8225   -6.5996    6.1634 H   0  0  0  0  0  0  0  0  0  0  0  0
    5.4383   -5.4936    5.9832 H   0  0  0  0  0  0  0  0  0  0  0  0
    6.7015   -8.4632    4.4493 H   0  0  0  0  0  0  0  0  0  0  0  0
    5.1907   -9.9621    3.1481 H   0  0  0  0  0  0  0  0  0  0  0  0
    3.5814   -8.9873    1.5167 H   0  0  0  0  0  0  0  0  0  0  0  0
    3.4468   -6.5716    1.1702 H   0  0  0  0  0  0  0  0  0  0  0  0
  1  2  1  0
  1 28  1  0
  1 29  1  0
  1 30  1  0
  2  3  1  0
  3  4  2  0
  3 18  1  0
  4  5  1  0
  4 31  1  0
  5  6  2  0
  5 32  1  0
  6  7  1  0
  6 17  1  0
  7  8  2  0
  7 27  1  0
  8  9  1  0
  8 19  1  0
  9 10  1  0
  9 16  2  0
 10 11  2  0
 10 33  1  0
 11 12  1  0
 11 34  1  0
 12 13  1  0
 12 15  2  0
 13 14  1  0
 14 35  1  0
 14 36  1  0
 14 37  1  0
 15 16  1  0
 15 38  1  0
 16 17  1  0
 17 18  2  0
 18 39  1  0
 19 20  1  1
 19 21  1  0
 19 22  1  0
 20 40  1  0
 20 41  1  0
 20 42  1  0
 21 43  1  0
 21 44  1  0
 21 45  1  0
 22 23  1  0
 22 27  2  0
 23 24  2  0
 23 46  1  0
 24 25  1  0
 24 47  1  0
 25 26  2  0
 25 48  1  0
 26 27  1  0
 26 49  1  0
M  END

