
     RDKit          3D

 19 19  0  0  0  0  0  0  0  0999 V2000
    1.0347    0.1574   -0.0127 N   0  0  0  0  0  0  0  0  0  0  0  0
    2.1933    0.1005   -0.0125 C   0  0  0  0  0  0  0  0  0  0  0  0
    3.6301    0.0908   -0.0132 C   0  0  0  0  0  0  0  0  0  0  0  0
    4.3262    1.3079   -0.0258 C   0  0  0  0  0  0  0  0  0  0  0  0
    5.7206    1.2801   -0.0264 C   0  0  0  0  0  0  0  0  0  0  0  0
    6.4733    2.5975   -0.0406 C   0  0  0  0  0  0  0  0  0  0  0  0
    7.8195    2.4657   -0.0408 N   0  0  0  0  0  0  0  0  0  0  0  0
    5.8726    3.6583   -0.0505 O   0  0  0  0  0  0  0  0  0  0  0  0
    6.4117    0.1369   -0.0148 N   0  0  0  0  0  0  0  0  0  0  0  0
    5.7741   -1.0326   -0.0025 C   0  0  0  0  0  0  0  0  0  0  0  0
    6.6893   -2.2469    0.0104 C   0  0  1  0  0  0  0  0  0  0  0  0
    6.4739   -3.0042    1.1142 F   0  0  0  0  0  0  0  0  0  0  0  0
    6.4756   -3.0262   -1.0782 F   0  0  0  0  0  0  0  0  0  0  0  0
    4.3676   -1.1135   -0.0014 C   0  0  0  0  0  0  0  0  0  0  0  0
    3.4589   -2.7674    0.0145 Br  0  0  0  0  0  0  0  0  0  0  0  0
    3.8096    2.2683   -0.0352 H   0  0  0  0  0  0  0  0  0  0  0  0
    8.2379    1.5438   -0.0314 H   0  0  0  0  0  0  0  0  0  0  0  0
    8.3926    3.2999   -0.0495 H   0  0  0  0  0  0  0  0  0  0  0  0
    7.7368   -1.9047    0.0078 H   0  0  0  0  0  0  0  0  0  0  0  0
  1  2  3  0
  2  3  1  0
  3  4  2  0
  3 14  1  0
  4  5  1  0
  4 16  1  0
  5  6  1  0
  5  9  2  0
  6  7  1  0
  6  8  2  0
  7 17  1  0
  7 18  1  0
  9 10  1  0
 10 11  1  0
 10 14  2  0
 11 12  1  0
 11 13  1  0
 11 19  1  1
 14 15  1  0
M  END

