
     RDKit          3D

 80 86  0  0  0  0  0  0  0  0999 V2000
    6.2169    3.1408   -5.2984 C   0  0  0  0  0  0  0  0  0  0  0  0
    6.3575    2.3663   -4.0105 C   0  0  0  0  0  0  0  0  0  0  0  0
    6.5227    3.0205   -2.7788 C   0  0  0  0  0  0  0  0  0  0  0  0
    6.6913    2.3146   -1.5885 C   0  0  0  0  0  0  0  0  0  0  0  0
    6.6798    0.9061   -1.5811 C   0  0  0  0  0  0  0  0  0  0  0  0
    6.8674    0.1680   -0.3843 N   0  0  0  0  0  0  0  0  0  0  0  0
    6.3861    0.6233    0.8702 C   0  0  0  0  0  0  0  0  0  0  0  0
    5.1813    1.3441    0.9804 C   0  0  0  0  0  0  0  0  0  0  0  0
    4.7178    1.7681    2.2252 C   0  0  0  0  0  0  0  0  0  0  0  0
    5.4123    1.4798    3.4111 C   0  0  0  0  0  0  0  0  0  0  0  0
    4.8811    1.9071    4.7577 C   0  0  0  0  0  0  0  0  0  0  0  0
    6.6050    0.7512    3.2922 C   0  0  0  0  0  0  0  0  0  0  0  0
    7.0906    0.3335    2.0524 C   0  0  0  0  0  0  0  0  0  0  0  0
    7.5671   -1.0801   -0.4447 C   0  0  0  0  0  0  0  0  0  0  0  0
    8.9675   -1.0904   -0.6471 C   0  0  0  0  0  0  0  0  0  0  0  0
    9.7232    0.1209   -0.7664 C   0  0  0  0  0  0  0  0  0  0  0  0
   11.0762    0.0952   -0.9949 C   0  0  0  0  0  0  0  0  0  0  0  0
   11.7602   -1.1467   -1.1262 C   0  0  0  0  0  0  0  0  0  0  0  0
   11.0786   -2.3308   -0.9969 C   0  0  0  0  0  0  0  0  0  0  0  0
    9.6701   -2.3517   -0.7356 C   0  0  0  0  0  0  0  0  0  0  0  0
    8.9597   -3.5637   -0.5664 C   0  0  0  0  0  0  0  0  0  0  0  0
    9.6595   -4.8118   -0.6275 N   0  0  0  0  0  0  0  0  0  0  0  0
   10.4997   -5.1798    0.4547 C   0  0  0  0  0  0  0  0  0  0  0  0
   10.1841   -4.7885    1.7684 C   0  0  0  0  0  0  0  0  0  0  0  0
   11.0261   -5.1164    2.8316 C   0  0  0  0  0  0  0  0  0  0  0  0
   12.2034   -5.8549    2.6412 C   0  0  0  0  0  0  0  0  0  0  0  0
   13.0864   -6.2418    3.8025 C   0  0  0  0  0  0  0  0  0  0  0  0
   12.5125   -6.2379    1.3262 C   0  0  0  0  0  0  0  0  0  0  0  0
   11.6899   -5.9044    0.2508 C   0  0  0  0  0  0  0  0  0  0  0  0
    9.4873   -5.6384   -1.7674 C   0  0  0  0  0  0  0  0  0  0  0  0
    9.2625   -5.0688   -3.0340 C   0  0  0  0  0  0  0  0  0  0  0  0
    9.0557   -5.8766   -4.1523 C   0  0  0  0  0  0  0  0  0  0  0  0
    9.0770   -7.2770   -4.0665 C   0  0  0  0  0  0  0  0  0  0  0  0
    8.8921   -8.1414   -5.2899 C   0  0  0  0  0  0  0  0  0  0  0  0
    9.2984   -7.8365   -2.7984 C   0  0  0  0  0  0  0  0  0  0  0  0
    9.4908   -7.0428   -1.6677 C   0  0  0  0  0  0  0  0  0  0  0  0
    7.5637   -3.5524   -0.3365 C   0  0  0  0  0  0  0  0  0  0  0  0
    6.8213   -4.7607   -0.1327 C   0  0  0  0  0  0  0  0  0  0  0  0
    5.4623   -4.7367    0.0570 C   0  0  0  0  0  0  0  0  0  0  0  0
    4.7563   -3.5002    0.0477 C   0  0  0  0  0  0  0  0  0  0  0  0
    5.4315   -2.3175   -0.1224 C   0  0  0  0  0  0  0  0  0  0  0  0
    6.8528   -2.2932   -0.3012 C   0  0  0  0  0  0  0  0  0  0  0  0
    6.5111    0.2426   -2.8094 C   0  0  0  0  0  0  0  0  0  0  0  0
    6.3594    0.9640   -3.9945 C   0  0  0  0  0  0  0  0  0  0  0  0
    5.6771    4.0884   -5.1450 H   0  0  0  0  0  0  0  0  0  0  0  0
    5.6745    2.5615   -6.0616 H   0  0  0  0  0  0  0  0  0  0  0  0
    7.2037    3.3961   -5.7245 H   0  0  0  0  0  0  0  0  0  0  0  0
    6.5332    4.1144   -2.7481 H   0  0  0  0  0  0  0  0  0  0  0  0
    6.8334    2.8601   -0.6541 H   0  0  0  0  0  0  0  0  0  0  0  0
    4.6038    1.5742    0.0835 H   0  0  0  0  0  0  0  0  0  0  0  0
    3.7798    2.3295    2.2745 H   0  0  0  0  0  0  0  0  0  0  0  0
    4.2997    2.8396    4.6870 H   0  0  0  0  0  0  0  0  0  0  0  0
    5.6954    2.0694    5.4810 H   0  0  0  0  0  0  0  0  0  0  0  0
    4.2128    1.1402    5.1888 H   0  0  0  0  0  0  0  0  0  0  0  0
    7.1805    0.5113    4.1914 H   0  0  0  0  0  0  0  0  0  0  0  0
    8.0294   -0.2200    1.9983 H   0  0  0  0  0  0  0  0  0  0  0  0
    9.2016    1.0728   -0.6734 H   0  0  0  0  0  0  0  0  0  0  0  0
   11.6327    1.0319   -1.0812 H   0  0  0  0  0  0  0  0  0  0  0  0
   12.8346   -1.1549   -1.3265 H   0  0  0  0  0  0  0  0  0  0  0  0
   11.6062   -3.2793   -1.0907 H   0  0  0  0  0  0  0  0  0  0  0  0
    9.2721   -4.2201    1.9569 H   0  0  0  0  0  0  0  0  0  0  0  0
   10.7511   -4.7928    3.8400 H   0  0  0  0  0  0  0  0  0  0  0  0
   13.0778   -5.4736    4.5915 H   0  0  0  0  0  0  0  0  0  0  0  0
   14.1303   -6.3903    3.4852 H   0  0  0  0  0  0  0  0  0  0  0  0
   12.7507   -7.1863    4.2670 H   0  0  0  0  0  0  0  0  0  0  0  0
   13.4314   -6.7996    1.1322 H   0  0  0  0  0  0  0  0  0  0  0  0
   11.9760   -6.2028   -0.7591 H   0  0  0  0  0  0  0  0  0  0  0  0
    9.2475   -3.9831   -3.1414 H   0  0  0  0  0  0  0  0  0  0  0  0
    8.8808   -5.3993   -5.1213 H   0  0  0  0  0  0  0  0  0  0  0  0
    8.1508   -7.7112   -5.9818 H   0  0  0  0  0  0  0  0  0  0  0  0
    8.5568   -9.1551   -5.0218 H   0  0  0  0  0  0  0  0  0  0  0  0
    9.8357   -8.2485   -5.8542 H   0  0  0  0  0  0  0  0  0  0  0  0
    9.3049   -8.9249   -2.6852 H   0  0  0  0  0  0  0  0  0  0  0  0
    9.6390   -7.5167   -0.6960 H   0  0  0  0  0  0  0  0  0  0  0  0
    7.3575   -5.7091   -0.1324 H   0  0  0  0  0  0  0  0  0  0  0  0
    4.9166   -5.6709    0.2115 H   0  0  0  0  0  0  0  0  0  0  0  0
    3.6717   -3.4947    0.1813 H   0  0  0  0  0  0  0  0  0  0  0  0
    4.8892   -1.3726   -0.1219 H   0  0  0  0  0  0  0  0  0  0  0  0
    6.4942   -0.8481   -2.8347 H   0  0  0  0  0  0  0  0  0  0  0  0
    6.2272    0.4154   -4.9319 H   0  0  0  0  0  0  0  0  0  0  0  0
  1  2  1  0
  1 45  1  0
  1 46  1  0
  1 47  1  0
  2  3  2  0
  2 44  1  0
  3  4  1  0
  3 48  1  0
  4  5  2  0
  4 49  1  0
  5  6  1  0
  5 43  1  0
  6  7  1  0
  6 14  1  0
  7  8  2  0
  7 13  1  0
  8  9  1  0
  8 50  1  0
  9 10  2  0
  9 51  1  0
 10 11  1  0
 10 12  1  0
 11 52  1  0
 11 53  1  0
 11 54  1  0
 12 13  2  0
 12 55  1  0
 13 56  1  0
 14 15  1  0
 14 42  2  0
 15 16  2  0
 15 20  1  0
 16 17  1  0
 16 57  1  0
 17 18  2  0
 17 58  1  0
 18 19  1  0
 18 59  1  0
 19 20  2  0
 19 60  1  0
 20 21  1  0
 21 22  1  0
 21 37  2  0
 22 23  1  0
 22 30  1  0
 23 24  2  0
 23 29  1  0
 24 25  1  0
 24 61  1  0
 25 26  2  0
 25 62  1  0
 26 27  1  0
 26 28  1  0
 27 63  1  0
 27 64  1  0
 27 65  1  0
 28 29  2  0
 28 66  1  0
 29 67  1  0
 30 31  2  0
 30 36  1  0
 31 32  1  0
 31 68  1  0
 32 33  2  0
 32 69  1  0
 33 34  1  0
 33 35  1  0
 34 70  1  0
 34 71  1  0
 34 72  1  0
 35 36  2  0
 35 73  1  0
 36 74  1  0
 37 38  1  0
 37 42  1  0
 38 39  2  0
 38 75  1  0
 39 40  1  0
 39 76  1  0
 40 41  2  0
 40 77  1  0
 41 42  1  0
 41 78  1  0
 43 44  2  0
 43 79  1  0
 44 80  1  0
M  END

