
     RDKit          3D

 33 32  0  0  0  0  0  0  0  0999 V2000
    1.0986   -0.0938    0.1845 C   0  0  0  0  0  0  0  0  0  0  0  0
    2.5276   -0.6505    0.1115 C   0  0  1  0  0  0  0  0  0  0  0  0
    2.5547   -2.1038    0.6014 C   0  0  0  0  0  0  0  0  0  0  0  0
    3.1363   -0.5199   -1.3096 C   0  0  1  0  0  0  0  0  0  0  0  0
    3.0741    0.9016   -1.8846 C   0  0  0  0  0  0  0  0  0  0  0  0
    4.5163   -0.9955   -1.3368 N   0  0  0  0  0  0  0  0  0  0  0  0
    4.9552   -1.9977   -2.1432 C   0  0  0  0  0  0  0  0  0  0  0  0
    4.2435   -2.6833   -2.8575 O   0  0  0  0  0  0  0  0  0  0  0  0
    6.4811   -2.1861   -2.1520 C   0  0  0  0  0  0  0  0  0  0  0  0
    7.1604   -1.7006   -0.9551 N   0  0  0  0  0  0  0  0  0  0  0  0
    7.0524   -2.6254    0.1658 C   0  0  0  0  0  0  0  0  0  0  0  0
    8.5402   -1.2929   -1.1808 C   0  0  0  0  0  0  0  0  0  0  0  0
    8.6456   -0.1212   -2.0637 C   0  0  0  0  0  0  0  0  0  0  0  0
    8.7280    0.7958   -2.7661 N   0  0  0  0  0  0  0  0  0  0  0  0
    0.6694   -0.2621    1.1849 H   0  0  0  0  0  0  0  0  0  0  0  0
    0.4417   -0.5981   -0.5452 H   0  0  0  0  0  0  0  0  0  0  0  0
    1.0547    0.9873   -0.0128 H   0  0  0  0  0  0  0  0  0  0  0  0
    3.1605   -0.0461    0.7920 H   0  0  0  0  0  0  0  0  0  0  0  0
    1.9263   -2.7462   -0.0378 H   0  0  0  0  0  0  0  0  0  0  0  0
    2.1734   -2.1783    1.6324 H   0  0  0  0  0  0  0  0  0  0  0  0
    3.5724   -2.5206    0.5879 H   0  0  0  0  0  0  0  0  0  0  0  0
    2.5894   -1.1999   -1.9827 H   0  0  0  0  0  0  0  0  0  0  0  0
    3.5881    1.6228   -1.2254 H   0  0  0  0  0  0  0  0  0  0  0  0
    2.0379    1.2450   -2.0159 H   0  0  0  0  0  0  0  0  0  0  0  0
    3.5648    0.9328   -2.8690 H   0  0  0  0  0  0  0  0  0  0  0  0
    5.2357   -0.4842   -0.8312 H   0  0  0  0  0  0  0  0  0  0  0  0
    6.8441   -1.6223   -3.0273 H   0  0  0  0  0  0  0  0  0  0  0  0
    6.6737   -3.2574   -2.3599 H   0  0  0  0  0  0  0  0  0  0  0  0
    5.9947   -2.8644    0.3463 H   0  0  0  0  0  0  0  0  0  0  0  0
    7.4553   -2.1645    1.0813 H   0  0  0  0  0  0  0  0  0  0  0  0
    7.5921   -3.5812   -0.0097 H   0  0  0  0  0  0  0  0  0  0  0  0
    9.1755   -2.1022   -1.6069 H   0  0  0  0  0  0  0  0  0  0  0  0
    8.9938   -1.0202   -0.2135 H   0  0  0  0  0  0  0  0  0  0  0  0
  1  2  1  0
  1 15  1  0
  1 16  1  0
  1 17  1  0
  2  3  1  0
  2  4  1  0
  2 18  1  1
  3 19  1  0
  3 20  1  0
  3 21  1  0
  4  5  1  0
  4  6  1  0
  4 22  1  6
  5 23  1  0
  5 24  1  0
  5 25  1  0
  6  7  1  0
  6 26  1  0
  7  8  2  0
  7  9  1  0
  9 10  1  0
  9 27  1  0
  9 28  1  0
 10 11  1  0
 10 12  1  0
 11 29  1  0
 11 30  1  0
 11 31  1  0
 12 13  1  0
 12 32  1  0
 12 33  1  0
 13 14  3  0
M  END

