
     RDKit          3D

 60 65  0  0  0  0  0  0  0  0999 V2000
    1.9902   -0.6973    0.2954 O   0  0  0  0  0  0  0  0  0  0  0  0
    3.1703   -0.5314    0.0637 C   0  0  0  0  0  0  0  0  0  0  0  0
    3.8933   -1.2918   -1.0704 C   0  0  0  0  0  0  0  0  0  0  0  0
    3.0273   -2.2671   -1.6859 N   0  0  0  0  0  0  0  0  0  0  0  0
    2.6384   -3.4717   -1.0935 C   0  0  0  0  0  0  0  0  0  0  0  0
    1.6121   -4.1036   -1.7247 C   0  0  0  0  0  0  0  0  0  0  0  0
    1.0674   -3.1634   -3.1226 S   0  0  0  0  0  0  0  0  0  0  0  0
    2.2823   -1.8819   -2.8021 C   0  0  0  0  0  0  0  0  0  0  0  0
    2.4392   -0.8642   -3.4311 O   0  0  0  0  0  0  0  0  0  0  0  0
    0.9225   -5.3900   -1.3293 C   0  0  2  0  0  0  0  0  0  0  0  0
   -0.4604   -5.1633   -0.7129 C   0  0  0  0  0  0  0  0  0  0  0  0
   -0.8078   -3.9815   -0.0425 C   0  0  0  0  0  0  0  0  0  0  0  0
   -2.0855   -3.8630    0.5089 C   0  0  0  0  0  0  0  0  0  0  0  0
   -2.9783   -4.9275    0.3623 C   0  0  0  0  0  0  0  0  0  0  0  0
   -2.6687   -6.0544   -0.2842 N   0  0  0  0  0  0  0  0  0  0  0  0
   -1.4465   -6.1634   -0.8049 C   0  0  0  0  0  0  0  0  0  0  0  0
    1.9074   -6.1336   -0.4088 C   0  0  2  0  0  0  0  0  0  0  0  0
    1.5321   -7.4755    0.2091 C   0  0  0  0  0  0  0  0  0  0  0  0
    0.8369   -8.3456   -0.2396 O   0  0  0  0  0  0  0  0  0  0  0  0
    2.2511   -7.5537    1.4258 N   0  0  0  0  0  0  0  0  0  0  0  0
    2.3513   -8.7531    2.1995 C   0  0  0  0  0  0  0  0  0  0  0  0
    1.4033   -9.0055    3.1921 C   0  0  0  0  0  0  0  0  0  0  0  0
    1.4791  -10.1721    3.9565 C   0  0  0  0  0  0  0  0  0  0  0  0
    2.5055  -11.0888    3.7260 C   0  0  0  0  0  0  0  0  0  0  0  0
    3.4548  -10.8408    2.7313 C   0  0  0  0  0  0  0  0  0  0  0  0
    3.3869   -9.6763    1.9611 C   0  0  0  0  0  0  0  0  0  0  0  0
    4.4225   -9.4223    0.8857 C   0  0  1  0  0  0  0  0  0  0  0  0
    5.1229   -8.2975    1.1189 F   0  0  0  0  0  0  0  0  0  0  0  0
    5.3031  -10.4282    0.7932 F   0  0  0  0  0  0  0  0  0  0  0  0
    3.8547   -9.2784   -0.3303 F   0  0  0  0  0  0  0  0  0  0  0  0
    2.8619   -6.3394    1.7964 C   0  0  0  0  0  0  0  0  0  0  0  0
    3.5759   -6.1693    2.7457 O   0  0  0  0  0  0  0  0  0  0  0  0
    2.3561   -5.3091    0.7927 C   0  0  1  0  0  0  0  0  0  0  0  0
    3.5479   -4.0085    0.3426 S   0  0  0  0  0  0  0  0  0  0  0  0
    3.9946    0.3353    0.7352 N   0  0  0  0  0  0  0  0  0  0  0  0
    3.6835    1.2067    1.7981 C   0  0  0  0  0  0  0  0  0  0  0  0
    2.3953    1.3250    2.3482 C   0  0  0  0  0  0  0  0  0  0  0  0
    2.1781    2.2143    3.3990 C   0  0  0  0  0  0  0  0  0  0  0  0
    3.2125    2.9956    3.9235 C   0  0  0  0  0  0  0  0  0  0  0  0
    2.8872    4.0900    5.2356 Cl  0  0  0  0  0  0  0  0  0  0  0  0
    4.4988    2.8760    3.3724 C   0  0  0  0  0  0  0  0  0  0  0  0
    5.8308    3.8180    3.9769 Cl  0  0  0  0  0  0  0  0  0  0  0  0
    4.7263    1.9881    2.3198 C   0  0  0  0  0  0  0  0  0  0  0  0
    4.8158   -1.7663   -0.6978 H   0  0  0  0  0  0  0  0  0  0  0  0
    4.1732   -0.5739   -1.8576 H   0  0  0  0  0  0  0  0  0  0  0  0
    0.7851   -6.0147   -2.2272 H   0  0  0  0  0  0  0  0  0  0  0  0
   -0.0984   -3.1524    0.0297 H   0  0  0  0  0  0  0  0  0  0  0  0
   -2.3872   -2.9532    1.0331 H   0  0  0  0  0  0  0  0  0  0  0  0
   -3.9907   -4.8630    0.7788 H   0  0  0  0  0  0  0  0  0  0  0  0
   -1.2171   -7.1016   -1.3229 H   0  0  0  0  0  0  0  0  0  0  0  0
    2.8056   -6.3713   -1.0087 H   0  0  0  0  0  0  0  0  0  0  0  0
    0.6045   -8.2803    3.3575 H   0  0  0  0  0  0  0  0  0  0  0  0
    0.7325  -10.3623    4.7308 H   0  0  0  0  0  0  0  0  0  0  0  0
    2.5706  -12.0032    4.3198 H   0  0  0  0  0  0  0  0  0  0  0  0
    4.2572  -11.5557    2.5468 H   0  0  0  0  0  0  0  0  0  0  0  0
    1.4854   -4.8197    1.2628 H   0  0  0  0  0  0  0  0  0  0  0  0
    4.9610    0.3656    0.4286 H   0  0  0  0  0  0  0  0  0  0  0  0
    1.5815    0.7244    1.9502 H   0  0  0  0  0  0  0  0  0  0  0  0
    1.1802    2.3115    3.8299 H   0  0  0  0  0  0  0  0  0  0  0  0
    5.7365    1.9155    1.9109 H   0  0  0  0  0  0  0  0  0  0  0  0
  1  2  2  0
  2  3  1  0
  2 35  1  0
  3  4  1  0
  3 44  1  0
  3 45  1  0
  4  5  1  0
  4  8  1  0
  5  6  2  0
  5 34  1  0
  6  7  1  0
  6 10  1  0
  7  8  2  0
  8  9  1  0
 10 11  1  0
 10 17  1  0
 10 46  1  6
 11 12  2  0
 11 16  1  0
 12 13  1  0
 12 47  1  0
 13 14  2  0
 13 48  1  0
 14 15  1  0
 14 49  1  0
 15 16  2  0
 16 50  1  0
 17 18  1  0
 17 33  1  0
 17 51  1  6
 18 19  2  0
 18 20  1  0
 20 21  1  0
 20 31  1  0
 21 22  2  0
 21 26  1  0
 22 23  1  0
 22 52  1  0
 23 24  2  0
 23 53  1  0
 24 25  1  0
 24 54  1  0
 25 26  2  0
 25 55  1  0
 26 27  1  0
 27 28  1  1
 27 29  1  0
 27 30  1  0
 31 32  2  0
 31 33  1  0
 33 34  1  0
 33 56  1  1
 35 36  1  0
 35 57  1  0
 36 37  2  0
 36 43  1  0
 37 38  1  0
 37 58  1  0
 38 39  2  0
 38 59  1  0
 39 40  1  0
 39 41  1  0
 41 42  1  0
 41 43  2  0
 43 60  1  0
M  CHG  2   7   1   9  -1
M  END

