
     RDKit          3D

 33 33  0  0  0  0  0  0  0  0999 V2000
    1.4938   -1.6420   -0.3353 N   0  0  0  0  0  0  0  0  0  0  0  0
    2.8104   -1.2944   -0.5814 C   0  0  0  0  0  0  0  0  0  0  0  0
    3.3033   -0.2485   -0.1896 O   0  0  0  0  0  0  0  0  0  0  0  0
    3.5183   -2.2184   -1.3240 N   0  0  0  0  0  0  0  0  0  0  0  0
    4.8743   -1.9256   -1.7433 C   0  0  0  0  0  0  0  0  0  0  0  0
    4.9461   -0.9291   -2.9148 C   0  0  0  0  0  0  0  0  0  0  0  0
    6.3070   -0.6012   -3.3044 N   0  0  0  0  0  0  0  0  0  0  0  0
    7.0279   -1.4364   -4.1199 C   0  0  0  0  0  0  0  0  0  0  0  0
    6.5567   -2.4561   -4.6015 O   0  0  0  0  0  0  0  0  0  0  0  0
    8.3308   -1.0004   -4.3560 N   0  0  0  0  0  0  0  0  0  0  0  0
    9.3204   -1.6279   -5.1234 C   0  0  0  0  0  0  0  0  0  0  0  0
   10.5491   -0.9604   -5.2804 C   0  0  0  0  0  0  0  0  0  0  0  0
   11.5753   -1.5524   -6.0173 C   0  0  0  0  0  0  0  0  0  0  0  0
   13.2294   -0.6220   -6.2016 Br  0  0  0  0  0  0  0  0  0  0  0  0
   11.4163   -2.8001   -6.6156 C   0  0  0  0  0  0  0  0  0  0  0  0
   10.1852   -3.4550   -6.4738 C   0  0  0  0  0  0  0  0  0  0  0  0
   10.0451   -4.8032   -7.1376 C   0  0  0  0  0  0  0  0  0  0  0  0
   10.9867   -5.4331   -7.5417 O   0  0  0  0  0  0  0  0  0  0  0  0
    8.7910   -5.2823   -7.2703 O   0  0  0  0  0  0  0  0  0  0  0  0
    9.1460   -2.8864   -5.7274 C   0  0  0  0  0  0  0  0  0  0  0  0
    1.0341   -1.0498    0.3468 H   0  0  0  0  0  0  0  0  0  0  0  0
    1.2383   -2.6224   -0.2972 H   0  0  0  0  0  0  0  0  0  0  0  0
    3.0049   -2.9216   -1.8425 H   0  0  0  0  0  0  0  0  0  0  0  0
    5.3665   -2.8663   -2.0326 H   0  0  0  0  0  0  0  0  0  0  0  0
    5.4145   -1.5058   -0.8812 H   0  0  0  0  0  0  0  0  0  0  0  0
    4.4338   -0.0007   -2.6242 H   0  0  0  0  0  0  0  0  0  0  0  0
    4.4330   -1.3511   -3.7917 H   0  0  0  0  0  0  0  0  0  0  0  0
    6.7760    0.1398   -2.7975 H   0  0  0  0  0  0  0  0  0  0  0  0
    8.5921   -0.0977   -3.9778 H   0  0  0  0  0  0  0  0  0  0  0  0
   10.7064    0.0192   -4.8235 H   0  0  0  0  0  0  0  0  0  0  0  0
   12.2129   -3.2761   -7.1867 H   0  0  0  0  0  0  0  0  0  0  0  0
    8.1395   -4.6231   -6.9908 H   0  0  0  0  0  0  0  0  0  0  0  0
    8.1929   -3.3877   -5.5700 H   0  0  0  0  0  0  0  0  0  0  0  0
  1  2  1  0
  1 21  1  0
  1 22  1  0
  2  3  2  0
  2  4  1  0
  4  5  1  0
  4 23  1  0
  5  6  1  0
  5 24  1  0
  5 25  1  0
  6  7  1  0
  6 26  1  0
  6 27  1  0
  7  8  1  0
  7 28  1  0
  8  9  2  0
  8 10  1  0
 10 11  1  0
 10 29  1  0
 11 12  2  0
 11 20  1  0
 12 13  1  0
 12 30  1  0
 13 14  1  0
 13 15  2  0
 15 16  1  0
 15 31  1  0
 16 17  1  0
 16 20  2  0
 17 18  2  0
 17 19  1  0
 19 32  1  0
 20 33  1  0
M  END

