
     RDKit          3D

 40 41  0  0  0  0  0  0  0  0999 V2000
    8.0115    3.3472   -1.2357 C   0  0  0  0  0  0  0  0  0  0  0  0
    7.1409    2.1225   -1.0012 C   0  0  0  0  0  0  0  0  0  0  0  0
    7.6061    0.9977   -1.1498 O   0  0  0  0  0  0  0  0  0  0  0  0
    5.8538    2.3912   -0.6404 N   0  0  0  0  0  0  0  0  0  0  0  0
    4.7491    1.4853   -0.3088 C   0  0  2  0  0  0  0  0  0  0  0  0
    3.8473    1.9039   -0.7783 H   0  0  0  0  0  0  0  0  0  0  0  0
    4.5310    1.3847    1.2269 C   0  0  1  0  0  0  0  0  0  0  0  0
    4.5929    2.4146    1.6385 H   0  0  0  0  0  0  0  0  0  0  0  0
    3.2440    0.7363    1.4731 N   0  0  0  0  0  0  0  0  0  0  0  0
    5.6591    0.5698    1.7980 C   0  0  0  0  0  0  0  0  0  0  0  0
    6.1858   -0.4145    1.0540 C   0  0  0  0  0  0  0  0  0  0  0  0
    7.4601   -1.1288    1.4340 C   0  0  0  0  0  0  0  0  0  0  0  0
    7.7009   -1.5121    2.5493 O   0  0  0  0  0  0  0  0  0  0  0  0
    8.3138   -1.2599    0.4143 O   0  0  0  0  0  0  0  0  0  0  0  0
    5.7341   -0.7789   -0.1714 O   0  0  0  0  0  0  0  0  0  0  0  0
    4.8699    0.0803   -0.9121 C   0  0  1  0  0  0  0  0  0  0  0  0
    5.3274    0.1637   -1.9105 H   0  0  0  0  0  0  0  0  0  0  0  0
    3.4482   -0.4835   -1.1701 C   0  0  0  0  0  0  0  0  0  0  0  0
    2.6292    0.2869   -1.6662 O   0  0  0  0  0  0  0  0  0  0  0  0
    3.1533   -1.7876   -0.9586 N   0  0  0  0  0  0  0  0  0  0  0  0
    1.7752   -2.2283   -1.2376 C   0  0  0  0  0  0  0  0  0  0  0  0
    1.6862   -3.6055   -0.5740 C   0  0  0  0  0  0  0  0  0  0  0  0
    3.1251   -4.1274   -0.6625 C   0  0  0  0  0  0  0  0  0  0  0  0
    3.9697   -2.8768   -0.3904 C   0  0  0  0  0  0  0  0  0  0  0  0
    8.4658    3.2645   -2.2340 H   0  0  0  0  0  0  0  0  0  0  0  0
    8.8344    3.3309   -0.5046 H   0  0  0  0  0  0  0  0  0  0  0  0
    7.4790    4.3060   -1.1564 H   0  0  0  0  0  0  0  0  0  0  0  0
    5.6158    3.3733   -0.5719 H   0  0  0  0  0  0  0  0  0  0  0  0
    2.4627    1.3337    1.2004 H   0  0  0  0  0  0  0  0  0  0  0  0
    3.1373    0.5044    2.4592 H   0  0  0  0  0  0  0  0  0  0  0  0
    6.1040    0.7952    2.7678 H   0  0  0  0  0  0  0  0  0  0  0  0
    8.0171   -0.6970   -0.3332 H   0  0  0  0  0  0  0  0  0  0  0  0
    1.6087   -2.2816   -2.3285 H   0  0  0  0  0  0  0  0  0  0  0  0
    1.0576   -1.4938   -0.8442 H   0  0  0  0  0  0  0  0  0  0  0  0
    0.9505   -4.2612   -1.0627 H   0  0  0  0  0  0  0  0  0  0  0  0
    1.3875   -3.4984    0.4824 H   0  0  0  0  0  0  0  0  0  0  0  0
    3.3293   -4.5069   -1.6781 H   0  0  0  0  0  0  0  0  0  0  0  0
    3.3460   -4.9392    0.0464 H   0  0  0  0  0  0  0  0  0  0  0  0
    4.9620   -2.9244   -0.8542 H   0  0  0  0  0  0  0  0  0  0  0  0
    4.1163   -2.7244    0.6926 H   0  0  0  0  0  0  0  0  0  0  0  0
  1  2  1  0
  1 25  1  0
  1 26  1  0
  1 27  1  0
  2  3  2  0
  2  4  1  0
  4  5  1  0
  4 28  1  0
  5  6  1  6
  5  7  1  0
  5 16  1  0
  7  8  1  1
  7  9  1  0
  7 10  1  0
  9 29  1  0
  9 30  1  0
 10 11  2  0
 10 31  1  0
 11 12  1  0
 11 15  1  0
 12 13  2  0
 12 14  1  0
 14 32  1  0
 15 16  1  0
 16 17  1  6
 16 18  1  0
 18 19  2  0
 18 20  1  0
 20 21  1  0
 20 24  1  0
 21 22  1  0
 21 33  1  0
 21 34  1  0
 22 23  1  0
 22 35  1  0
 22 36  1  0
 23 24  1  0
 23 37  1  0
 23 38  1  0
 24 39  1  0
 24 40  1  0
M  END

