
     RDKit          3D

 33 34  0  0  0  0  0  0  0  0999 V2000
    2.3546    2.0741    3.7915 C   0  0  0  0  0  0  0  0  0  0  0  0
    3.3834    1.7530    2.8245 N   0  0  0  0  0  0  0  0  0  0  0  0
    3.1237    1.0868    1.6567 C   0  0  0  0  0  0  0  0  0  0  0  0
    1.9936    0.7412    1.3489 O   0  0  0  0  0  0  0  0  0  0  0  0
    4.3547    0.7641    0.7741 C   0  0  1  0  0  0  0  0  0  0  0  0
    3.8708    0.3604   -0.6329 C   0  0  0  0  0  0  0  0  0  0  0  0
    3.4628    1.5749   -1.4648 C   0  0  0  0  0  0  0  0  0  0  0  0
    4.5740    2.5118   -1.6504 N   0  0  0  0  0  0  0  0  0  0  0  0
    4.1521    3.8858   -1.7892 C   0  0  0  0  0  0  0  0  0  0  0  0
    5.7255    2.2711   -0.7977 C   0  0  0  0  0  0  0  0  0  0  0  0
    5.3962    1.9520    0.6767 C   0  0  2  0  0  0  0  0  0  0  0  0
    4.9995    2.8619    1.1522 H   0  0  0  0  0  0  0  0  0  0  0  0
    6.6391    1.4244    1.4195 C   0  0  0  0  0  0  0  0  0  0  0  0
    6.5642   -0.0059    1.1737 N   0  0  0  0  0  0  0  0  0  0  0  0
    5.1835   -0.3838    1.4358 C   0  0  0  0  0  0  0  0  0  0  0  0
    2.5164    1.5520    4.7506 H   0  0  0  0  0  0  0  0  0  0  0  0
    1.3929    1.7501    3.3733 H   0  0  0  0  0  0  0  0  0  0  0  0
    2.3099    3.1586    3.9892 H   0  0  0  0  0  0  0  0  0  0  0  0
    4.3411    1.9925    3.0466 H   0  0  0  0  0  0  0  0  0  0  0  0
    3.0066   -0.3099   -0.5308 H   0  0  0  0  0  0  0  0  0  0  0  0
    4.6721   -0.1970   -1.1421 H   0  0  0  0  0  0  0  0  0  0  0  0
    2.6117    2.0676   -0.9503 H   0  0  0  0  0  0  0  0  0  0  0  0
    3.0743    1.2445   -2.4477 H   0  0  0  0  0  0  0  0  0  0  0  0
    3.4182    3.9719   -2.6086 H   0  0  0  0  0  0  0  0  0  0  0  0
    5.0084    4.5281   -2.0518 H   0  0  0  0  0  0  0  0  0  0  0  0
    3.6687    4.3162   -0.8792 H   0  0  0  0  0  0  0  0  0  0  0  0
    6.3776    3.1583   -0.8385 H   0  0  0  0  0  0  0  0  0  0  0  0
    6.3232    1.4317   -1.1938 H   0  0  0  0  0  0  0  0  0  0  0  0
    6.5917    1.6925    2.5027 H   0  0  0  0  0  0  0  0  0  0  0  0
    7.5784    1.8498    1.0274 H   0  0  0  0  0  0  0  0  0  0  0  0
    7.2417   -0.5515    1.7022 H   0  0  0  0  0  0  0  0  0  0  0  0
    4.9496   -0.4455    2.5211 H   0  0  0  0  0  0  0  0  0  0  0  0
    4.9422   -1.3638    0.9940 H   0  0  0  0  0  0  0  0  0  0  0  0
  1  2  1  0
  1 16  1  0
  1 17  1  0
  1 18  1  0
  2  3  1  0
  2 19  1  0
  3  4  2  0
  5  3  1  1
  5  6  1  0
  5 11  1  0
  5 15  1  0
  6  7  1  0
  6 20  1  0
  6 21  1  0
  7  8  1  0
  7 22  1  0
  7 23  1  0
  8  9  1  0
  8 10  1  0
  9 24  1  0
  9 25  1  0
  9 26  1  0
 10 11  1  0
 10 27  1  0
 10 28  1  0
 11 12  1  1
 11 13  1  0
 13 14  1  0
 13 29  1  0
 13 30  1  0
 14 15  1  0
 14 31  1  0
 15 32  1  0
 15 33  1  0
M  END

