
     RDKit          3D

 33 36  0  0  0  0  0  0  0  0999 V2000
    6.2838    2.4608   -1.1101 Cl  0  0  0  0  0  0  0  0  0  0  0  0
    5.1777    1.1805   -0.7207 C   0  0  0  0  0  0  0  0  0  0  0  0
    3.9441    1.5515   -0.3767 N   0  0  0  0  0  0  0  0  0  0  0  0
    3.1515    0.5270   -0.0924 C   0  0  0  0  0  0  0  0  0  0  0  0
    1.5215    0.9106    0.3671 Cl  0  0  0  0  0  0  0  0  0  0  0  0
    3.4679   -0.7547   -0.1208 N   0  0  0  0  0  0  0  0  0  0  0  0
    4.7373   -1.0101   -0.4810 C   0  0  0  0  0  0  0  0  0  0  0  0
    5.2107   -2.2779   -0.5563 N   0  0  0  0  0  0  0  0  0  0  0  0
    4.6265   -3.5381   -0.3219 C   0  0  0  0  0  0  0  0  0  0  0  0
    3.2606   -3.7048    0.0856 C   0  0  0  0  0  0  0  0  0  0  0  0
    2.7625   -4.9646    0.2952 C   0  0  0  0  0  0  0  0  0  0  0  0
    3.5604   -6.1391    0.1218 C   0  0  0  0  0  0  0  0  0  0  0  0
    3.0609   -7.4314    0.3336 C   0  0  0  0  0  0  0  0  0  0  0  0
    3.8618   -8.5706    0.1579 C   0  0  0  0  0  0  0  0  0  0  0  0
    3.3649   -9.8964    0.3709 C   0  0  0  0  0  0  0  0  0  0  0  0
    4.1732  -10.9911    0.1912 C   0  0  0  0  0  0  0  0  0  0  0  0
    5.5322  -10.8265   -0.2139 C   0  0  0  0  0  0  0  0  0  0  0  0
    6.0480   -9.5728   -0.4288 C   0  0  0  0  0  0  0  0  0  0  0  0
    5.2400   -8.4030   -0.2530 C   0  0  0  0  0  0  0  0  0  0  0  0
    5.7390   -7.1089   -0.4648 C   0  0  0  0  0  0  0  0  0  0  0  0
    4.9364   -5.9700   -0.2887 C   0  0  0  0  0  0  0  0  0  0  0  0
    5.4294   -4.6490   -0.5000 C   0  0  0  0  0  0  0  0  0  0  0  0
    5.6385   -0.0478   -0.7947 N   0  0  0  0  0  0  0  0  0  0  0  0
    6.1854   -2.2963   -0.8416 H   0  0  0  0  0  0  0  0  0  0  0  0
    2.6375   -2.8251    0.2232 H   0  0  0  0  0  0  0  0  0  0  0  0
    1.7208   -5.0825    0.6056 H   0  0  0  0  0  0  0  0  0  0  0  0
    2.0191   -7.5549    0.6438 H   0  0  0  0  0  0  0  0  0  0  0  0
    2.3236  -10.0204    0.6810 H   0  0  0  0  0  0  0  0  0  0  0  0
    3.7800  -11.9972    0.3577 H   0  0  0  0  0  0  0  0  0  0  0  0
    6.1619  -11.7090   -0.3524 H   0  0  0  0  0  0  0  0  0  0  0  0
    7.0889   -9.4473   -0.7393 H   0  0  0  0  0  0  0  0  0  0  0  0
    6.7806   -6.9856   -0.7753 H   0  0  0  0  0  0  0  0  0  0  0  0
    6.4715   -4.5259   -0.8106 H   0  0  0  0  0  0  0  0  0  0  0  0
  1  2  1  0
  2  3  2  0
  2 23  1  0
  3  4  1  0
  4  5  1  0
  4  6  2  0
  6  7  1  0
  7  8  1  0
  7 23  2  0
  8  9  1  0
  8 24  1  0
  9 10  2  0
  9 22  1  0
 10 11  1  0
 10 25  1  0
 11 12  2  0
 11 26  1  0
 12 13  1  0
 12 21  1  0
 13 14  2  0
 13 27  1  0
 14 15  1  0
 14 19  1  0
 15 16  2  0
 15 28  1  0
 16 17  1  0
 16 29  1  0
 17 18  2  0
 17 30  1  0
 18 19  1  0
 18 31  1  0
 19 20  2  0
 20 21  1  0
 20 32  1  0
 21 22  2  0
 22 33  1  0
M  END

