
     RDKit          3D

 47 48  0  0  0  0  0  0  0  0999 V2000
    5.6027    0.3618   -1.7372 C   0  0  0  0  0  0  0  0  0  0  0  0
    5.0683   -0.8096   -0.9126 C   0  0  0  0  0  0  0  0  0  0  0  0
    5.2560   -0.6428    0.6028 C   0  0  0  0  0  0  0  0  0  0  0  0
    4.6063    0.5354    1.1578 N   0  0  0  0  0  0  0  0  0  0  0  0
    3.1785    0.6951    0.8932 C   0  0  0  0  0  0  0  0  0  0  0  0
    2.2719   -0.4400    1.4053 C   0  0  0  0  0  0  0  0  0  0  0  0
    2.3001   -0.6407    2.9211 C   0  0  0  0  0  0  0  0  0  0  0  0
    5.1902    1.1809    2.2692 C   0  0  0  0  0  0  0  0  0  0  0  0
    4.9110    2.5306    2.5619 C   0  0  0  0  0  0  0  0  0  0  0  0
    5.4882    3.1902    3.6480 C   0  0  0  0  0  0  0  0  0  0  0  0
    6.4148    2.5408    4.4868 C   0  0  0  0  0  0  0  0  0  0  0  0
    7.0600    3.1789    5.5480 N   0  0  0  0  0  0  0  0  0  0  0  0
    6.6159    4.4586    6.0597 C   0  0  0  0  0  0  0  0  0  0  0  0
    7.5055    4.9515    7.1833 C   0  0  0  0  0  0  0  0  0  0  0  0
    8.9044    4.8997    7.0633 C   0  0  0  0  0  0  0  0  0  0  0  0
    9.7255    5.3800    8.0860 C   0  0  0  0  0  0  0  0  0  0  0  0
    9.1620    5.9234    9.2455 C   0  0  0  0  0  0  0  0  0  0  0  0
    7.7719    5.9788    9.3755 C   0  0  0  0  0  0  0  0  0  0  0  0
    6.9517    5.4925    8.3523 C   0  0  0  0  0  0  0  0  0  0  0  0
    6.7049    1.1943    4.1950 C   0  0  0  0  0  0  0  0  0  0  0  0
    6.1030    0.5301    3.1282 C   0  0  0  0  0  0  0  0  0  0  0  0
    5.4567    0.1920   -2.8160 H   0  0  0  0  0  0  0  0  0  0  0  0
    6.6820    0.5093   -1.5643 H   0  0  0  0  0  0  0  0  0  0  0  0
    5.0999    1.3041   -1.4698 H   0  0  0  0  0  0  0  0  0  0  0  0
    5.5898   -1.7389   -1.2014 H   0  0  0  0  0  0  0  0  0  0  0  0
    4.0057   -0.9861   -1.1524 H   0  0  0  0  0  0  0  0  0  0  0  0
    6.3351   -0.5445    0.7968 H   0  0  0  0  0  0  0  0  0  0  0  0
    4.9375   -1.5814    1.1071 H   0  0  0  0  0  0  0  0  0  0  0  0
    3.0128    0.8160   -0.1921 H   0  0  0  0  0  0  0  0  0  0  0  0
    2.8499    1.6384    1.3507 H   0  0  0  0  0  0  0  0  0  0  0  0
    2.5349   -1.3857    0.8997 H   0  0  0  0  0  0  0  0  0  0  0  0
    1.2418   -0.2090    1.0783 H   0  0  0  0  0  0  0  0  0  0  0  0
    3.3063   -0.9116    3.2766 H   0  0  0  0  0  0  0  0  0  0  0  0
    1.6091   -1.4420    3.2292 H   0  0  0  0  0  0  0  0  0  0  0  0
    2.0057    0.2791    3.4531 H   0  0  0  0  0  0  0  0  0  0  0  0
    4.2324    3.0935    1.9176 H   0  0  0  0  0  0  0  0  0  0  0  0
    5.2210    4.2334    3.8228 H   0  0  0  0  0  0  0  0  0  0  0  0
    7.3999    2.5477    6.2661 H   0  0  0  0  0  0  0  0  0  0  0  0
    5.5610    4.4387    6.4075 H   0  0  0  0  0  0  0  0  0  0  0  0
    6.6468    5.1948    5.2349 H   0  0  0  0  0  0  0  0  0  0  0  0
    9.3443    4.4735    6.1582 H   0  0  0  0  0  0  0  0  0  0  0  0
   10.8124    5.3329    7.9764 H   0  0  0  0  0  0  0  0  0  0  0  0
    9.8048    6.2995   10.0456 H   0  0  0  0  0  0  0  0  0  0  0  0
    7.3217    6.3965   10.2799 H   0  0  0  0  0  0  0  0  0  0  0  0
    5.8642    5.5318    8.4639 H   0  0  0  0  0  0  0  0  0  0  0  0
    7.4150    0.6518    4.8271 H   0  0  0  0  0  0  0  0  0  0  0  0
    6.3450   -0.5225    2.9748 H   0  0  0  0  0  0  0  0  0  0  0  0
  1  2  1  0
  1 22  1  0
  1 23  1  0
  1 24  1  0
  2  3  1  0
  2 25  1  0
  2 26  1  0
  3  4  1  0
  3 27  1  0
  3 28  1  0
  4  5  1  0
  4  8  1  0
  5  6  1  0
  5 29  1  0
  5 30  1  0
  6  7  1  0
  6 31  1  0
  6 32  1  0
  7 33  1  0
  7 34  1  0
  7 35  1  0
  8  9  2  0
  8 21  1  0
  9 10  1  0
  9 36  1  0
 10 11  2  0
 10 37  1  0
 11 12  1  0
 11 20  1  0
 12 13  1  0
 12 38  1  0
 13 14  1  0
 13 39  1  0
 13 40  1  0
 14 15  2  0
 14 19  1  0
 15 16  1  0
 15 41  1  0
 16 17  2  0
 16 42  1  0
 17 18  1  0
 17 43  1  0
 18 19  2  0
 18 44  1  0
 19 45  1  0
 20 21  2  0
 20 46  1  0
 21 47  1  0
M  END

