
     RDKit          3D

 29 31  0  0  0  0  0  0  0  0999 V2000
    0.9051    0.3136   -0.0097 O   0  0  0  0  0  0  0  0  0  0  0  0
    2.0962    0.1314   -0.0026 C   0  0  0  0  0  0  0  0  0  0  0  0
    3.1669    1.2770    0.0167 C   0  0  0  0  0  0  0  0  0  0  0  0
    2.9753    2.4728    0.0500 O   0  0  0  0  0  0  0  0  0  0  0  0
    4.3965    0.6490   -0.0048 N   0  0  0  0  0  0  0  0  0  0  0  0
    5.6585    1.3718   -0.1009 C   0  0  0  0  0  0  0  0  0  0  0  0
    6.4172    1.4809    1.1904 C   0  0  0  0  0  0  0  0  0  0  0  0
    7.3444    0.6356    1.5757 N   0  0  0  0  0  0  0  0  0  0  0  0
    7.7695    1.0665    2.8095 C   0  0  0  0  0  0  0  0  0  0  0  0
    7.0882    2.1970    3.1839 C   0  0  0  0  0  0  0  0  0  0  0  0
    6.2075    2.4579    2.1462 N   0  0  0  0  0  0  0  0  0  0  0  0
    5.3725    3.6226    2.0384 C   0  0  1  0  0  0  0  0  0  0  0  0
    4.9379    3.9563    3.2703 F   0  0  0  0  0  0  0  0  0  0  0  0
    6.0940    4.6669    1.5645 F   0  0  0  0  0  0  0  0  0  0  0  0
    4.2518   -0.7553    0.0186 C   0  0  0  0  0  0  0  0  0  0  0  0
    5.2494   -1.7245    0.0639 C   0  0  0  0  0  0  0  0  0  0  0  0
    4.8398   -3.0684    0.0617 C   0  0  0  0  0  0  0  0  0  0  0  0
    3.4874   -3.4360    0.0263 C   0  0  0  0  0  0  0  0  0  0  0  0
    2.4949   -2.4496    0.0016 C   0  0  0  0  0  0  0  0  0  0  0  0
    2.8864   -1.1119   -0.0007 C   0  0  0  0  0  0  0  0  0  0  0  0
    5.4209    2.3619   -0.5157 H   0  0  0  0  0  0  0  0  0  0  0  0
    6.3106    0.8518   -0.8170 H   0  0  0  0  0  0  0  0  0  0  0  0
    8.5423    0.5390    3.3667 H   0  0  0  0  0  0  0  0  0  0  0  0
    7.1324    2.8264    4.0678 H   0  0  0  0  0  0  0  0  0  0  0  0
    4.5158    3.4420    1.3702 H   0  0  0  0  0  0  0  0  0  0  0  0
    6.3035   -1.4534    0.1410 H   0  0  0  0  0  0  0  0  0  0  0  0
    5.6047   -3.8485    0.0981 H   0  0  0  0  0  0  0  0  0  0  0  0
    3.2118   -4.4926    0.0281 H   0  0  0  0  0  0  0  0  0  0  0  0
    1.4325   -2.7043   -0.0140 H   0  0  0  0  0  0  0  0  0  0  0  0
  1  2  2  0
  2  3  1  0
  2 20  1  0
  3  4  2  0
  3  5  1  0
  5  6  1  0
  5 15  1  0
  6  7  1  0
  6 21  1  0
  6 22  1  0
  7  8  2  0
  7 11  1  0
  8  9  1  0
  9 10  2  0
  9 23  1  0
 10 11  1  0
 10 24  1  0
 11 12  1  0
 12 13  1  0
 12 14  1  0
 12 25  1  6
 15 16  2  0
 15 20  1  0
 16 17  1  0
 16 26  1  0
 17 18  2  0
 17 27  1  0
 18 19  1  0
 18 28  1  0
 19 20  2  0
 19 29  1  0
M  END

