
     RDKit          3D

 65 70  0  0  0  0  0  0  0  0999 V2000
    6.1011    6.2809   -4.0396 C   0  0  0  0  0  0  0  0  0  0  0  0
    5.5445    5.4330   -3.0694 O   0  0  0  0  0  0  0  0  0  0  0  0
    6.4808    4.9000   -2.1712 C   0  0  0  0  0  0  0  0  0  0  0  0
    5.7264    3.9731   -1.2194 C   0  0  0  0  0  0  0  0  0  0  0  0
    6.5899    3.3723   -0.2254 N   0  0  0  0  0  0  0  0  0  0  0  0
    7.3924    2.3397   -0.5699 N   0  0  0  0  0  0  0  0  0  0  0  0
    8.1120    2.0333    0.4921 C   0  0  0  0  0  0  0  0  0  0  0  0
    7.7938    2.8891    1.5946 C   0  0  0  0  0  0  0  0  0  0  0  0
    8.2219    3.0079    2.9294 C   0  0  0  0  0  0  0  0  0  0  0  0
    7.6498    4.0048    3.7161 C   0  0  0  0  0  0  0  0  0  0  0  0
    8.0430    4.1689    5.0741 N   0  0  0  0  0  0  0  0  0  0  0  0
    7.2306    4.6518    6.1069 C   0  0  0  0  0  0  0  0  0  0  0  0
    7.9696    4.7248    7.2356 C   0  0  0  0  0  0  0  0  0  0  0  0
    9.2626    4.2808    6.9230 N   0  0  0  0  0  0  0  0  0  0  0  0
   10.3634    4.2536    7.7868 C   0  0  0  0  0  0  0  0  0  0  0  0
   11.0544    5.2999    8.3770 C   0  0  0  0  0  0  0  0  0  0  0  0
   12.1036    4.6662    9.0832 C   0  0  0  0  0  0  0  0  0  0  0  0
   12.0718    3.3471    8.9411 N   0  0  0  0  0  0  0  0  0  0  0  0
   11.0010    3.0909    8.1647 N   0  0  0  0  0  0  0  0  0  0  0  0
   10.6984    1.7456    7.8069 C   0  0  0  0  0  0  0  0  0  0  0  0
   11.7487    0.8764    7.4927 C   0  0  0  0  0  0  0  0  0  0  0  0
   11.4658   -0.4480    7.1627 C   0  0  0  0  0  0  0  0  0  0  0  0
   10.1426   -0.8772    7.1404 C   0  0  0  0  0  0  0  0  0  0  0  0
    9.8773   -2.1541    6.8127 F   0  0  0  0  0  0  0  0  0  0  0  0
    9.0684   -0.0351    7.4530 C   0  0  0  0  0  0  0  0  0  0  0  0
    7.6580   -0.5624    7.4273 C   0  0  0  0  0  0  0  0  0  0  0  0
    9.3744    1.2875    7.7980 C   0  0  0  0  0  0  0  0  0  0  0  0
   13.1252    5.4341    9.8671 C   0  0  0  0  0  0  0  0  0  0  0  0
   12.5653    6.8414   10.1256 C   0  0  0  0  0  0  0  0  0  0  0  0
   12.0357    7.4424    8.9012 N   0  0  0  0  0  0  0  0  0  0  0  0
   12.3237    8.7156    8.4423 C   0  0  0  0  0  0  0  0  0  0  0  0
   11.6270    9.3149    7.6611 O   0  0  0  0  0  0  0  0  0  0  0  0
   13.4669    9.2757    8.9163 O   0  0  0  0  0  0  0  0  0  0  0  0
   10.8557    6.7870    8.3318 C   0  0  0  0  0  0  0  0  0  0  0  0
    9.3367    3.9314    5.5605 C   0  0  0  0  0  0  0  0  0  0  0  0
   10.3100    3.5169    4.9681 O   0  0  0  0  0  0  0  0  0  0  0  0
    6.6674    4.8814    3.1780 C   0  0  0  0  0  0  0  0  0  0  0  0
    6.2224    4.7662    1.8696 C   0  0  0  0  0  0  0  0  0  0  0  0
    6.7950    3.7559    1.0765 C   0  0  0  0  0  0  0  0  0  0  0  0
    5.2844    6.6332   -4.6863 H   0  0  0  0  0  0  0  0  0  0  0  0
    6.8490    5.7567   -4.6681 H   0  0  0  0  0  0  0  0  0  0  0  0
    6.5969    7.1627   -3.5849 H   0  0  0  0  0  0  0  0  0  0  0  0
    6.9903    5.7019   -1.5955 H   0  0  0  0  0  0  0  0  0  0  0  0
    7.2689    4.3230   -2.6962 H   0  0  0  0  0  0  0  0  0  0  0  0
    5.2442    3.1708   -1.7970 H   0  0  0  0  0  0  0  0  0  0  0  0
    4.9348    4.5381   -0.7058 H   0  0  0  0  0  0  0  0  0  0  0  0
    8.8312    1.2156    0.4513 H   0  0  0  0  0  0  0  0  0  0  0  0
    8.9928    2.3572    3.3389 H   0  0  0  0  0  0  0  0  0  0  0  0
    6.1789    4.8709    5.9541 H   0  0  0  0  0  0  0  0  0  0  0  0
    7.6954    5.0272    8.2418 H   0  0  0  0  0  0  0  0  0  0  0  0
   12.7734    1.2462    7.5147 H   0  0  0  0  0  0  0  0  0  0  0  0
   12.2592   -1.1542    6.9110 H   0  0  0  0  0  0  0  0  0  0  0  0
    7.5375   -1.4154    8.1148 H   0  0  0  0  0  0  0  0  0  0  0  0
    7.3878   -0.9265    6.4225 H   0  0  0  0  0  0  0  0  0  0  0  0
    6.9382    0.2171    7.7143 H   0  0  0  0  0  0  0  0  0  0  0  0
    8.5619    1.9603    8.0759 H   0  0  0  0  0  0  0  0  0  0  0  0
   14.0692    5.5040    9.2977 H   0  0  0  0  0  0  0  0  0  0  0  0
   13.3575    4.9282   10.8178 H   0  0  0  0  0  0  0  0  0  0  0  0
   13.3263    7.4970   10.5700 H   0  0  0  0  0  0  0  0  0  0  0  0
   11.7526    6.7783   10.8757 H   0  0  0  0  0  0  0  0  0  0  0  0
   14.0552    8.6093    9.2946 H   0  0  0  0  0  0  0  0  0  0  0  0
   10.7229    7.1569    7.3059 H   0  0  0  0  0  0  0  0  0  0  0  0
    9.9435    7.0865    8.8880 H   0  0  0  0  0  0  0  0  0  0  0  0
    6.2662    5.6810    3.8033 H   0  0  0  0  0  0  0  0  0  0  0  0
    5.4695    5.4531    1.4788 H   0  0  0  0  0  0  0  0  0  0  0  0
  1  2  1  0
  1 40  1  0
  1 41  1  0
  1 42  1  0
  2  3  1  0
  3  4  1  0
  3 43  1  0
  3 44  1  0
  4  5  1  0
  4 45  1  0
  4 46  1  0
  5  6  1  0
  5 39  1  0
  6  7  2  0
  7  8  1  0
  7 47  1  0
  8  9  1  0
  8 39  2  0
  9 10  2  0
  9 48  1  0
 10 11  1  0
 10 37  1  0
 11 12  1  0
 11 35  1  0
 12 13  2  0
 12 49  1  0
 13 14  1  0
 13 50  1  0
 14 15  1  0
 14 35  1  0
 15 16  2  0
 15 19  1  0
 16 17  1  0
 16 34  1  0
 17 18  2  0
 17 28  1  0
 18 19  1  0
 19 20  1  0
 20 21  2  0
 20 27  1  0
 21 22  1  0
 21 51  1  0
 22 23  2  0
 22 52  1  0
 23 24  1  0
 23 25  1  0
 25 26  1  0
 25 27  2  0
 26 53  1  0
 26 54  1  0
 26 55  1  0
 27 56  1  0
 28 29  1  0
 28 57  1  0
 28 58  1  0
 29 30  1  0
 29 59  1  0
 29 60  1  0
 30 31  1  0
 30 34  1  0
 31 32  2  0
 31 33  1  0
 33 61  1  0
 34 62  1  0
 34 63  1  0
 35 36  2  0
 37 38  2  0
 37 64  1  0
 38 39  1  0
 38 65  1  0
M  END

