
     RDKit          3D

 21 21  0  0  0  0  0  0  0  0999 V2000
    0.9537    0.0646    0.1083 C   0  0  0  0  0  0  0  0  0  0  0  0
    2.4584    0.0571   -0.0193 C   0  0  0  0  0  0  0  0  0  0  0  0
    3.2043    1.2405   -0.0013 C   0  0  0  0  0  0  0  0  0  0  0  0
    4.5976    1.2052   -0.1123 C   0  0  0  0  0  0  0  0  0  0  0  0
    5.2939   -0.0016   -0.2449 C   0  0  0  0  0  0  0  0  0  0  0  0
    6.7980   -0.0148   -0.3640 C   0  0  0  0  0  0  0  0  0  0  0  0
    4.5528   -1.2082   -0.2657 C   0  0  0  0  0  0  0  0  0  0  0  0
    5.2544   -2.5369   -0.4086 C   0  0  0  0  0  0  0  0  0  0  0  0
    3.1588   -1.1530   -0.1534 C   0  0  0  0  0  0  0  0  0  0  0  0
    0.5536    1.0895    0.1123 H   0  0  0  0  0  0  0  0  0  0  0  0
    0.6273   -0.4246    1.0421 H   0  0  0  0  0  0  0  0  0  0  0  0
    0.4756   -0.4807   -0.7224 H   0  0  0  0  0  0  0  0  0  0  0  0
    2.6942    2.2029    0.0998 H   0  0  0  0  0  0  0  0  0  0  0  0
    5.1594    2.1440   -0.0963 H   0  0  0  0  0  0  0  0  0  0  0  0
    7.2107    1.0041   -0.3282 H   0  0  0  0  0  0  0  0  0  0  0  0
    7.1300   -0.4775   -1.3096 H   0  0  0  0  0  0  0  0  0  0  0  0
    7.2682   -0.5954    0.4484 H   0  0  0  0  0  0  0  0  0  0  0  0
    5.8311   -2.5946   -1.3478 H   0  0  0  0  0  0  0  0  0  0  0  0
    4.5384   -3.3716   -0.4038 H   0  0  0  0  0  0  0  0  0  0  0  0
    5.9749   -2.7077    0.4097 H   0  0  0  0  0  0  0  0  0  0  0  0
    2.5945   -2.0914   -0.1717 H   0  0  0  0  0  0  0  0  0  0  0  0
  1  2  1  0
  1 10  1  0
  1 11  1  0
  1 12  1  0
  2  3  2  0
  2  9  1  0
  3  4  1  0
  3 13  1  0
  4  5  2  0
  4 14  1  0
  5  6  1  0
  5  7  1  0
  6 15  1  0
  6 16  1  0
  6 17  1  0
  7  8  1  0
  7  9  2  0
  8 18  1  0
  8 19  1  0
  8 20  1  0
  9 21  1  0
M  END

