
     RDKit          3D

 58 61  0  0  0  0  0  0  0  0999 V2000
    0.9784   -0.0199    0.0207 C   0  0  0  0  0  0  0  0  0  0  0  0
    2.3852    0.0655    0.3538 N   0  0  0  0  0  0  0  0  0  0  0  0
    3.0625    1.2390    0.2634 C   0  0  0  0  0  0  0  0  0  0  0  0
    2.5030    2.3022    0.0056 O   0  0  0  0  0  0  0  0  0  0  0  0
    4.5622    1.1624    0.4680 C   0  0  0  0  0  0  0  0  0  0  0  0
    5.2778    2.2539    0.9567 C   0  0  0  0  0  0  0  0  0  0  0  0
    4.6669    3.3108    1.6128 N   0  0  0  0  0  0  0  0  0  0  0  0
    4.9302    4.7122    1.2789 C   0  0  0  0  0  0  0  0  0  0  0  0
    3.6030    5.4596    1.0525 C   0  0  0  0  0  0  0  0  0  0  0  0
    2.7054    5.3822    2.1951 N   0  0  0  0  0  0  0  0  0  0  0  0
    3.0585    6.2155    3.3274 C   0  0  0  0  0  0  0  0  0  0  0  0
    2.4098    3.9857    2.5009 C   0  0  0  0  0  0  0  0  0  0  0  0
    3.6708    3.1171    2.6749 C   0  0  0  0  0  0  0  0  0  0  0  0
    6.7378    2.2506    0.8226 C   0  0  0  0  0  0  0  0  0  0  0  0
    7.5617    3.2244    1.4344 C   0  0  0  0  0  0  0  0  0  0  0  0
    8.9428    3.2587    1.2762 C   0  0  0  0  0  0  0  0  0  0  0  0
    9.7943    4.3126    1.9410 C   0  0  0  0  0  0  0  0  0  0  0  0
    9.5272    2.2648    0.4667 C   0  0  0  0  0  0  0  0  0  0  0  0
    8.7670    1.2509   -0.0950 C   0  0  0  0  0  0  0  0  0  0  0  0
    7.3692    1.1982    0.1072 C   0  0  0  0  0  0  0  0  0  0  0  0
    6.6258    0.1044   -0.3183 N   0  0  0  0  0  0  0  0  0  0  0  0
    7.2849   -1.0489   -0.9366 C   0  0  0  0  0  0  0  0  0  0  0  0
    7.7113   -0.8479   -2.3800 C   0  0  0  0  0  0  0  0  0  0  0  0
    8.8500   -1.5085   -2.8659 C   0  0  0  0  0  0  0  0  0  0  0  0
    9.2290   -1.3919   -4.2062 C   0  0  0  0  0  0  0  0  0  0  0  0
    8.4751   -0.6048   -5.0812 C   0  0  0  0  0  0  0  0  0  0  0  0
    7.3413    0.0607   -4.6054 C   0  0  0  0  0  0  0  0  0  0  0  0
    6.9612   -0.0613   -3.2660 C   0  0  0  0  0  0  0  0  0  0  0  0
    5.2531   -0.0175   -0.0546 C   0  0  0  0  0  0  0  0  0  0  0  0
    4.6882   -1.0863   -0.3176 O   0  0  0  0  0  0  0  0  0  0  0  0
    0.7616   -1.0046   -0.4192 H   0  0  0  0  0  0  0  0  0  0  0  0
    0.7106    0.7690   -0.6978 H   0  0  0  0  0  0  0  0  0  0  0  0
    0.3343    0.1073    0.9094 H   0  0  0  0  0  0  0  0  0  0  0  0
    2.9694   -0.7713    0.3193 H   0  0  0  0  0  0  0  0  0  0  0  0
    5.5451    4.7601    0.3700 H   0  0  0  0  0  0  0  0  0  0  0  0
    5.4931    5.2195    2.0881 H   0  0  0  0  0  0  0  0  0  0  0  0
    3.0985    5.0094    0.1823 H   0  0  0  0  0  0  0  0  0  0  0  0
    3.8174    6.5171    0.8217 H   0  0  0  0  0  0  0  0  0  0  0  0
    3.1647    7.2622    2.9969 H   0  0  0  0  0  0  0  0  0  0  0  0
    3.9983    5.9437    3.8596 H   0  0  0  0  0  0  0  0  0  0  0  0
    2.2468    6.1863    4.0731 H   0  0  0  0  0  0  0  0  0  0  0  0
    1.8128    3.5716    1.6781 H   0  0  0  0  0  0  0  0  0  0  0  0
    1.8105    3.9346    3.4250 H   0  0  0  0  0  0  0  0  0  0  0  0
    3.3974    2.0551    2.7289 H   0  0  0  0  0  0  0  0  0  0  0  0
    4.1606    3.3679    3.6394 H   0  0  0  0  0  0  0  0  0  0  0  0
    7.0954    3.9718    2.0717 H   0  0  0  0  0  0  0  0  0  0  0  0
    9.1846    5.0120    2.5319 H   0  0  0  0  0  0  0  0  0  0  0  0
   10.3558    4.9029    1.1973 H   0  0  0  0  0  0  0  0  0  0  0  0
   10.5384    3.8608    2.6186 H   0  0  0  0  0  0  0  0  0  0  0  0
   10.6070    2.2743    0.2915 H   0  0  0  0  0  0  0  0  0  0  0  0
    9.2618    0.4931   -0.6984 H   0  0  0  0  0  0  0  0  0  0  0  0
    6.5462   -1.8605   -0.8844 H   0  0  0  0  0  0  0  0  0  0  0  0
    8.1488   -1.3471   -0.3225 H   0  0  0  0  0  0  0  0  0  0  0  0
    9.4479   -2.1243   -2.1867 H   0  0  0  0  0  0  0  0  0  0  0  0
   10.1195   -1.9140   -4.5659 H   0  0  0  0  0  0  0  0  0  0  0  0
    8.7712   -0.5082   -6.1288 H   0  0  0  0  0  0  0  0  0  0  0  0
    6.7454    0.6792   -5.2817 H   0  0  0  0  0  0  0  0  0  0  0  0
    6.0731    0.4632   -2.9057 H   0  0  0  0  0  0  0  0  0  0  0  0
  1  2  1  0
  1 31  1  0
  1 32  1  0
  1 33  1  0
  2  3  1  0
  2 34  1  0
  3  4  2  0
  3  5  1  0
  5  6  2  0
  5 29  1  0
  6  7  1  0
  6 14  1  0
  7  8  1  0
  7 13  1  0
  8  9  1  0
  8 35  1  0
  8 36  1  0
  9 10  1  0
  9 37  1  0
  9 38  1  0
 10 11  1  0
 10 12  1  0
 11 39  1  0
 11 40  1  0
 11 41  1  0
 12 13  1  0
 12 42  1  0
 12 43  1  0
 13 44  1  0
 13 45  1  0
 14 15  2  0
 14 20  1  0
 15 16  1  0
 15 46  1  0
 16 17  1  0
 16 18  2  0
 17 47  1  0
 17 48  1  0
 17 49  1  0
 18 19  1  0
 18 50  1  0
 19 20  2  0
 19 51  1  0
 20 21  1  0
 21 22  1  0
 21 29  1  0
 22 23  1  0
 22 52  1  0
 22 53  1  0
 23 24  2  0
 23 28  1  0
 24 25  1  0
 24 54  1  0
 25 26  2  0
 25 55  1  0
 26 27  1  0
 26 56  1  0
 27 28  2  0
 27 57  1  0
 28 58  1  0
 29 30  2  0
M  END

