
     RDKit          3D

 30 30  0  0  0  0  0  0  0  0999 V2000
    2.8934    1.8552   -1.3799 O   0  0  0  0  0  0  0  0  0  0  0  0
    2.6546    2.9235   -0.8862 C   0  0  0  0  0  0  0  0  0  0  0  0
    1.3861    3.3952   -0.8667 O   0  0  0  0  0  0  0  0  0  0  0  0
    3.6991    3.8449   -0.2641 C   0  0  0  0  0  0  0  0  0  0  0  0
    5.1068    3.2496   -0.2190 C   0  0  0  0  0  0  0  0  0  0  0  0
    5.2526    2.0872    0.7677 C   0  0  0  0  0  0  0  0  0  0  0  0
    6.6478    1.4894    0.8370 C   0  0  0  0  0  0  0  0  0  0  0  0
    7.5335    2.4309    1.4863 O   0  0  0  0  0  0  0  0  0  0  0  0
    8.8048    2.6289    1.1216 C   0  0  0  0  0  0  0  0  0  0  0  0
    9.7609    1.6161    0.8533 C   0  0  0  0  0  0  0  0  0  0  0  0
    9.3689   -0.2319    1.1169 Br  0  0  0  0  0  0  0  0  0  0  0  0
   11.0648    1.9281    0.4696 C   0  0  0  0  0  0  0  0  0  0  0  0
   11.4450    3.2636    0.3860 C   0  0  0  0  0  0  0  0  0  0  0  0
   12.8246    3.5925   -0.0189 N   0  0  0  0  0  0  0  0  0  0  0  0
   13.5692    2.6634   -0.2853 O   0  0  0  0  0  0  0  0  0  0  0  0
   13.1302    4.7730   -0.0619 O   0  0  0  0  0  0  0  0  0  0  0  0
   10.5638    4.2981    0.6958 C   0  0  0  0  0  0  0  0  0  0  0  0
    9.2627    3.9733    1.0586 C   0  0  0  0  0  0  0  0  0  0  0  0
    8.0684    5.3832    1.5031 Br  0  0  0  0  0  0  0  0  0  0  0  0
    1.3519    4.2645   -0.4424 H   0  0  0  0  0  0  0  0  0  0  0  0
    3.3590    4.1272    0.7499 H   0  0  0  0  0  0  0  0  0  0  0  0
    3.6996    4.7813   -0.8518 H   0  0  0  0  0  0  0  0  0  0  0  0
    5.8162    4.0479    0.0469 H   0  0  0  0  0  0  0  0  0  0  0  0
    5.3721    2.9017   -1.2314 H   0  0  0  0  0  0  0  0  0  0  0  0
    4.5680    1.2741    0.4768 H   0  0  0  0  0  0  0  0  0  0  0  0
    4.9623    2.4068    1.7843 H   0  0  0  0  0  0  0  0  0  0  0  0
    7.0326    1.2581   -0.1695 H   0  0  0  0  0  0  0  0  0  0  0  0
    6.6359    0.5592    1.4220 H   0  0  0  0  0  0  0  0  0  0  0  0
   11.7935    1.1473    0.2580 H   0  0  0  0  0  0  0  0  0  0  0  0
   10.9000    5.3319    0.6397 H   0  0  0  0  0  0  0  0  0  0  0  0
  1  2  2  0
  2  3  1  0
  2  4  1  0
  3 20  1  0
  4  5  1  0
  4 21  1  0
  4 22  1  0
  5  6  1  0
  5 23  1  0
  5 24  1  0
  6  7  1  0
  6 25  1  0
  6 26  1  0
  7  8  1  0
  7 27  1  0
  7 28  1  0
  8  9  1  0
  9 10  2  0
  9 18  1  0
 10 11  1  0
 10 12  1  0
 12 13  2  0
 12 29  1  0
 13 14  1  0
 13 17  1  0
 14 15  2  0
 14 16  1  0
 17 18  2  0
 17 30  1  0
 18 19  1  0
M  CHG  2  14   1  16  -1
M  END

