
     RDKit          3D

 52 55  0  0  0  0  0  0  0  0999 V2000
   11.4875   -5.0532   -2.8153 C   0  0  0  0  0  0  0  0  0  0  0  0
   10.6615   -4.3174   -1.7871 C   0  0  0  0  0  0  0  0  0  0  0  0
   11.0683   -3.0795   -1.2779 C   0  0  0  0  0  0  0  0  0  0  0  0
   10.2862   -2.4176   -0.3214 C   0  0  0  0  0  0  0  0  0  0  0  0
    9.0983   -2.9769    0.1356 C   0  0  0  0  0  0  0  0  0  0  0  0
    8.6790   -4.2208   -0.3692 C   0  0  0  0  0  0  0  0  0  0  0  0
    7.5057   -4.6996    0.1284 O   0  0  0  0  0  0  0  0  0  0  0  0
    7.0093   -5.9440   -0.3224 C   0  0  0  0  0  0  0  0  0  0  0  0
    5.7017   -6.1911    0.4169 C   0  0  0  0  0  0  0  0  0  0  0  0
    5.0375   -7.4786    0.0522 C   0  0  0  0  0  0  0  0  0  0  0  0
    5.5367   -8.3176   -0.8203 N   0  0  0  0  0  0  0  0  0  0  0  0
    4.6128   -9.3574   -0.8448 O   0  0  0  0  0  0  0  0  0  0  0  0
    3.6419   -9.0359    0.0222 C   0  0  0  0  0  0  0  0  0  0  0  0
    2.5010   -9.9791    0.1682 C   0  0  1  0  0  0  0  0  0  0  0  0
    1.4845   -9.6234    1.2830 C   0  0  0  0  0  0  0  0  0  0  0  0
    0.4884   -9.2844    0.2375 N   0  0  0  0  0  0  0  0  0  0  0  0
   -1.1346   -9.7518    0.3752 S   0  0  1  0  0  0  0  0  0  0  0  0
   -1.4931  -10.4450   -0.8674 O   0  0  0  0  0  0  0  0  0  0  0  0
   -1.3119  -10.3812    1.6885 O   0  0  0  0  0  0  0  0  0  0  0  0
   -2.0032   -8.1448    0.3989 C   0  0  0  0  0  0  0  0  0  0  0  0
   -3.4883   -8.3321    0.5288 C   0  0  0  0  0  0  0  0  0  0  0  0
   -4.0909   -8.3805    1.7954 C   0  0  0  0  0  0  0  0  0  0  0  0
   -5.4666   -8.5873    1.9168 C   0  0  0  0  0  0  0  0  0  0  0  0
   -6.2537   -8.7569    0.7737 C   0  0  0  0  0  0  0  0  0  0  0  0
   -5.6587   -8.7236   -0.4914 C   0  0  0  0  0  0  0  0  0  0  0  0
   -4.2833   -8.5166   -0.6133 C   0  0  0  0  0  0  0  0  0  0  0  0
    1.3383   -9.7931   -0.8605 C   0  0  0  0  0  0  0  0  0  0  0  0
    3.8456   -7.8935    0.6060 N   0  0  0  0  0  0  0  0  0  0  0  0
    9.4584   -4.8844   -1.3250 C   0  0  0  0  0  0  0  0  0  0  0  0
   12.3788   -4.4775   -3.1046 H   0  0  0  0  0  0  0  0  0  0  0  0
   10.9041   -5.2546   -3.7293 H   0  0  0  0  0  0  0  0  0  0  0  0
   11.8279   -6.0297   -2.4310 H   0  0  0  0  0  0  0  0  0  0  0  0
   11.9999   -2.6281   -1.6287 H   0  0  0  0  0  0  0  0  0  0  0  0
   10.6115   -1.4504    0.0710 H   0  0  0  0  0  0  0  0  0  0  0  0
    8.4747   -2.4777    0.8797 H   0  0  0  0  0  0  0  0  0  0  0  0
    7.7302   -6.7556   -0.1161 H   0  0  0  0  0  0  0  0  0  0  0  0
    6.8403   -5.9302   -1.4143 H   0  0  0  0  0  0  0  0  0  0  0  0
    5.0004   -5.3629    0.2212 H   0  0  0  0  0  0  0  0  0  0  0  0
    5.8811   -6.1815    1.5050 H   0  0  0  0  0  0  0  0  0  0  0  0
    2.8871  -11.0078    0.2004 H   0  0  0  0  0  0  0  0  0  0  0  0
    1.7669   -8.7697    1.9149 H   0  0  0  0  0  0  0  0  0  0  0  0
    1.1846  -10.4773    1.9084 H   0  0  0  0  0  0  0  0  0  0  0  0
   -1.7121   -7.6549   -0.5405 H   0  0  0  0  0  0  0  0  0  0  0  0
   -1.5645   -7.5984    1.2453 H   0  0  0  0  0  0  0  0  0  0  0  0
   -3.4756   -8.2619    2.6908 H   0  0  0  0  0  0  0  0  0  0  0  0
   -5.9253   -8.6185    2.9082 H   0  0  0  0  0  0  0  0  0  0  0  0
   -7.3306   -8.9177    0.8687 H   0  0  0  0  0  0  0  0  0  0  0  0
   -6.2682   -8.8619   -1.3879 H   0  0  0  0  0  0  0  0  0  0  0  0
   -3.8179   -8.5057   -1.6019 H   0  0  0  0  0  0  0  0  0  0  0  0
    1.5154   -9.0617   -1.6642 H   0  0  0  0  0  0  0  0  0  0  0  0
    0.9773  -10.7351   -1.2996 H   0  0  0  0  0  0  0  0  0  0  0  0
    9.1445   -5.8497   -1.7251 H   0  0  0  0  0  0  0  0  0  0  0  0
  1  2  1  0
  1 30  1  0
  1 31  1  0
  1 32  1  0
  2  3  2  0
  2 29  1  0
  3  4  1  0
  3 33  1  0
  4  5  2  0
  4 34  1  0
  5  6  1  0
  5 35  1  0
  6  7  1  0
  6 29  2  0
  7  8  1  0
  8  9  1  0
  8 36  1  0
  8 37  1  0
  9 10  1  0
  9 38  1  0
  9 39  1  0
 10 11  2  0
 10 28  1  0
 11 12  1  0
 12 13  1  0
 13 14  1  0
 13 28  2  0
 14 15  1  0
 14 27  1  0
 14 40  1  1
 15 16  1  0
 15 41  1  0
 15 42  1  0
 16 17  1  0
 16 27  1  0
 17 18  2  0
 17 19  2  0
 17 20  1  1
 20 21  1  0
 20 43  1  0
 20 44  1  0
 21 22  2  0
 21 26  1  0
 22 23  1  0
 22 45  1  0
 23 24  2  0
 23 46  1  0
 24 25  1  0
 24 47  1  0
 25 26  2  0
 25 48  1  0
 26 49  1  0
 27 50  1  0
 27 51  1  0
 29 52  1  0
M  END

