
     RDKit          3D

 40 44  0  0  0  0  0  0  0  0999 V2000
   -0.1778   -1.4940   -0.8974 C   0  0  0  0  0  0  0  0  0  0  0  0
    1.1330   -1.2145   -1.2981 C   0  0  0  0  0  0  0  0  0  0  0  0
    1.6288    0.0757   -1.1399 C   0  0  0  0  0  0  0  0  0  0  0  0
    0.7940    1.0626   -0.5737 C   0  0  0  0  0  0  0  0  0  0  0  0
    1.2965    2.4429   -0.4031 C   0  0  0  0  0  0  0  0  0  0  0  0
    2.5787    2.6956   -0.7213 N   0  0  0  0  0  0  0  0  0  0  0  0
    2.7206    3.9992   -0.5437 N   0  0  0  0  0  0  0  0  0  0  0  0
    1.5990    4.6261   -0.1152 C   0  0  0  0  0  0  0  0  0  0  0  0
    0.6120    3.6487    0.0036 C   0  0  0  0  0  0  0  0  0  0  0  0
   -0.7769    3.9136    0.4430 C   0  0  0  0  0  0  0  0  0  0  0  0
   -1.5010    4.9902   -0.1556 C   0  0  0  0  0  0  0  0  0  0  0  0
   -2.7770    5.3247    0.2453 C   0  0  0  0  0  0  0  0  0  0  0  0
   -3.4176    4.5957    1.2823 C   0  0  0  0  0  0  0  0  0  0  0  0
   -4.7276    4.8641    1.7623 C   0  0  0  0  0  0  0  0  0  0  0  0
   -5.2484    4.0883    2.7766 C   0  0  0  0  0  0  0  0  0  0  0  0
   -4.5773    3.0612    3.3605 N   0  0  0  0  0  0  0  0  0  0  0  0
   -3.3652    2.7948    2.9304 C   0  0  0  0  0  0  0  0  0  0  0  0
   -2.7048    3.5137    1.8892 C   0  0  0  0  0  0  0  0  0  0  0  0
   -1.3940    3.1942    1.4554 C   0  0  0  0  0  0  0  0  0  0  0  0
    1.9056    6.0700    0.1593 C   0  0  0  0  0  0  0  0  0  0  0  0
    3.2886    6.2491   -0.5371 C   0  0  0  0  0  0  0  0  0  0  0  0
    3.9095    4.8329   -0.6155 C   0  0  0  0  0  0  0  0  0  0  0  0
   -0.4595    0.7869   -0.1877 N   0  0  0  0  0  0  0  0  0  0  0  0
   -0.9277   -0.4511   -0.3490 C   0  0  0  0  0  0  0  0  0  0  0  0
   -0.6087   -2.4919   -1.0051 H   0  0  0  0  0  0  0  0  0  0  0  0
    1.7613   -1.9965   -1.7332 H   0  0  0  0  0  0  0  0  0  0  0  0
    2.6409    0.3435   -1.4428 H   0  0  0  0  0  0  0  0  0  0  0  0
   -1.0304    5.5480   -0.9693 H   0  0  0  0  0  0  0  0  0  0  0  0
   -3.3097    6.1486   -0.2373 H   0  0  0  0  0  0  0  0  0  0  0  0
   -5.3139    5.6790    1.3293 H   0  0  0  0  0  0  0  0  0  0  0  0
   -6.2569    4.2807    3.1595 H   0  0  0  0  0  0  0  0  0  0  0  0
   -2.8342    1.9613    3.4107 H   0  0  0  0  0  0  0  0  0  0  0  0
   -0.8709    2.3620    1.9268 H   0  0  0  0  0  0  0  0  0  0  0  0
    1.9720    6.2500    1.2471 H   0  0  0  0  0  0  0  0  0  0  0  0
    1.1500    6.7673   -0.2305 H   0  0  0  0  0  0  0  0  0  0  0  0
    3.9409    6.9579   -0.0079 H   0  0  0  0  0  0  0  0  0  0  0  0
    3.1378    6.6371   -1.5564 H   0  0  0  0  0  0  0  0  0  0  0  0
    4.5781    4.6118    0.2350 H   0  0  0  0  0  0  0  0  0  0  0  0
    4.4656    4.6442   -1.5456 H   0  0  0  0  0  0  0  0  0  0  0  0
   -1.9595   -0.6261   -0.0202 H   0  0  0  0  0  0  0  0  0  0  0  0
  1  2  2  0
  1 24  1  0
  1 25  1  0
  2  3  1  0
  2 26  1  0
  3  4  2  0
  3 27  1  0
  4  5  1  0
  4 23  1  0
  5  6  2  0
  5  9  1  0
  6  7  1  0
  7  8  1  0
  7 22  1  0
  8  9  2  0
  8 20  1  0
  9 10  1  0
 10 11  2  0
 10 19  1  0
 11 12  1  0
 11 28  1  0
 12 13  2  0
 12 29  1  0
 13 14  1  0
 13 18  1  0
 14 15  2  0
 14 30  1  0
 15 16  1  0
 15 31  1  0
 16 17  2  0
 17 18  1  0
 17 32  1  0
 18 19  2  0
 19 33  1  0
 20 21  1  0
 20 34  1  0
 20 35  1  0
 21 22  1  0
 21 36  1  0
 21 37  1  0
 22 38  1  0
 22 39  1  0
 23 24  2  0
 24 40  1  0
M  END

