
     RDKit          3D

 39 40  0  0  0  0  0  0  0  0999 V2000
    3.4087    2.6057    2.4612 C   0  0  0  0  0  0  0  0  0  0  0  0
    4.0355    1.2164    2.5485 C   0  0  1  0  0  0  0  0  0  0  0  0
    3.1021    0.1054    3.0598 C   0  0  0  0  0  0  0  0  0  0  0  0
    3.8474   -1.1806    2.6872 C   0  0  0  0  0  0  0  0  0  0  0  0
    4.4186   -0.8933    1.2756 C   0  0  2  0  0  0  0  0  0  0  0  0
    5.7257   -1.6228    0.9634 C   0  0  0  0  0  0  0  0  0  0  0  0
    5.5550   -3.0597    1.0528 N   0  0  0  0  0  0  0  0  0  0  0  0
    6.5522   -3.9594    0.7777 C   0  0  0  0  0  0  0  0  0  0  0  0
    7.8827   -3.5524    0.5095 C   0  0  0  0  0  0  0  0  0  0  0  0
    8.8797   -4.4824    0.2257 C   0  0  0  0  0  0  0  0  0  0  0  0
    8.6088   -5.8555    0.1878 C   0  0  0  0  0  0  0  0  0  0  0  0
    7.3128   -6.2880    0.4629 C   0  0  0  0  0  0  0  0  0  0  0  0
    6.3074   -5.3649    0.7654 C   0  0  0  0  0  0  0  0  0  0  0  0
    4.6956   -6.0290    1.1806 S   0  0  1  0  0  0  0  0  0  0  0  0
    4.6195   -5.9235    2.9820 C   0  0  0  0  0  0  0  0  0  0  0  0
    3.6562   -5.1078    0.6649 O   0  0  0  0  0  0  0  0  0  0  0  0
    4.6537   -7.4508    0.8183 O   0  0  0  0  0  0  0  0  0  0  0  0
    4.5537    0.6578    1.1990 C   0  0  0  0  0  0  0  0  0  0  0  0
    3.0617    2.9535    3.4480 H   0  0  0  0  0  0  0  0  0  0  0  0
    2.5388    2.6051    1.7820 H   0  0  0  0  0  0  0  0  0  0  0  0
    4.1271    3.3505    2.0808 H   0  0  0  0  0  0  0  0  0  0  0  0
    4.8920    1.2672    3.2466 H   0  0  0  0  0  0  0  0  0  0  0  0
    2.1361    0.1546    2.5241 H   0  0  0  0  0  0  0  0  0  0  0  0
    2.8812    0.1877    4.1364 H   0  0  0  0  0  0  0  0  0  0  0  0
    3.2129   -2.0798    2.7168 H   0  0  0  0  0  0  0  0  0  0  0  0
    4.6774   -1.3458    3.3975 H   0  0  0  0  0  0  0  0  0  0  0  0
    3.6733   -1.2178    0.5280 H   0  0  0  0  0  0  0  0  0  0  0  0
    6.5023   -1.2947    1.6800 H   0  0  0  0  0  0  0  0  0  0  0  0
    6.0827   -1.3226   -0.0433 H   0  0  0  0  0  0  0  0  0  0  0  0
    4.6109   -3.4197    0.9093 H   0  0  0  0  0  0  0  0  0  0  0  0
    8.1286   -2.4905    0.5115 H   0  0  0  0  0  0  0  0  0  0  0  0
    9.8913   -4.1227    0.0182 H   0  0  0  0  0  0  0  0  0  0  0  0
    9.3938   -6.5756   -0.0505 H   0  0  0  0  0  0  0  0  0  0  0  0
    7.0520   -7.3482    0.4478 H   0  0  0  0  0  0  0  0  0  0  0  0
    4.7755   -4.8788    3.2821 H   0  0  0  0  0  0  0  0  0  0  0  0
    5.3814   -6.5876    3.4091 H   0  0  0  0  0  0  0  0  0  0  0  0
    3.6085   -6.2603    3.2514 H   0  0  0  0  0  0  0  0  0  0  0  0
    3.9457    1.0533    0.3685 H   0  0  0  0  0  0  0  0  0  0  0  0
    5.5912    0.9748    1.0014 H   0  0  0  0  0  0  0  0  0  0  0  0
  1  2  1  0
  1 19  1  0
  1 20  1  0
  1 21  1  0
  2  3  1  0
  2 18  1  0
  2 22  1  1
  3  4  1  0
  3 23  1  0
  3 24  1  0
  4  5  1  0
  4 25  1  0
  4 26  1  0
  5  6  1  0
  5 18  1  0
  5 27  1  6
  6  7  1  0
  6 28  1  0
  6 29  1  0
  7  8  1  0
  7 30  1  0
  8  9  2  0
  8 13  1  0
  9 10  1  0
  9 31  1  0
 10 11  2  0
 10 32  1  0
 11 12  1  0
 11 33  1  0
 12 13  2  0
 12 34  1  0
 13 14  1  0
 14 15  1  1
 14 16  2  0
 14 17  2  0
 15 35  1  0
 15 36  1  0
 15 37  1  0
 18 38  1  0
 18 39  1  0
M  END

