
     RDKit          3D

 20 21  0  0  0  0  0  0  0  0999 V2000
    1.1416   -0.1496   -0.0430 C   0  0  0  0  0  0  0  0  0  0  0  0
    2.6423   -0.0837   -0.0395 C   0  0  0  0  0  0  0  0  0  0  0  0
    3.3146   -1.1790   -0.0496 N   0  0  0  0  0  0  0  0  0  0  0  0
    4.7105   -1.1522   -0.0502 C   0  0  0  0  0  0  0  0  0  0  0  0
    5.3207   -2.3005   -0.0558 N   0  0  0  0  0  0  0  0  0  0  0  0
    6.6883   -2.3100   -0.0573 C   0  0  0  0  0  0  0  0  0  0  0  0
    7.3830   -3.9126   -0.0634 Cl  0  0  0  0  0  0  0  0  0  0  0  0
    7.5176   -1.2246   -0.0554 C   0  0  0  0  0  0  0  0  0  0  0  0
    6.9415    0.1145   -0.0496 C   0  0  0  0  0  0  0  0  0  0  0  0
    7.5950    1.1494   -0.0486 O   0  0  0  0  0  0  0  0  0  0  0  0
    5.4383    0.1252   -0.0445 C   0  0  0  0  0  0  0  0  0  0  0  0
    4.7494    1.2864   -0.0333 C   0  0  0  0  0  0  0  0  0  0  0  0
    3.2650    1.2955   -0.0262 C   0  0  0  0  0  0  0  0  0  0  0  0
    0.8151   -1.1970   -0.0443 H   0  0  0  0  0  0  0  0  0  0  0  0
    0.7302    0.3632   -0.9297 H   0  0  0  0  0  0  0  0  0  0  0  0
    0.7249    0.3639    0.8408 H   0  0  0  0  0  0  0  0  0  0  0  0
    8.6027   -1.3246   -0.0584 H   0  0  0  0  0  0  0  0  0  0  0  0
    5.3095    2.2276   -0.0287 H   0  0  0  0  0  0  0  0  0  0  0  0
    2.8809    1.8824   -0.8850 H   0  0  0  0  0  0  0  0  0  0  0  0
    2.8909    1.8590    0.8528 H   0  0  0  0  0  0  0  0  0  0  0  0
  1  2  1  0
  1 14  1  0
  1 15  1  0
  1 16  1  0
  2  3  2  0
  2 13  1  0
  3  4  1  0
  4  5  2  0
  4 11  1  0
  5  6  1  0
  6  7  1  0
  6  8  2  0
  8  9  1  0
  8 17  1  0
  9 10  2  0
  9 11  1  0
 11 12  2  0
 12 13  1  0
 12 18  1  0
 13 19  1  0
 13 20  1  0
M  END

