
     RDKit          3D

 42 44  0  0  0  0  0  0  0  0999 V2000
    4.3081    1.5180   -1.0227 C   0  0  0  0  0  0  0  0  0  0  0  0
    4.3710    0.9597    0.3906 C   0  0  0  0  0  0  0  0  0  0  0  0
    4.5281    1.6712    1.3704 O   0  0  0  0  0  0  0  0  0  0  0  0
    4.2378   -0.3989    0.5147 N   0  0  0  0  0  0  0  0  0  0  0  0
    4.3048   -1.0294    1.8393 C   0  0  0  0  0  0  0  0  0  0  0  0
    4.4518   -2.5189    1.5207 C   0  0  0  0  0  0  0  0  0  0  0  0
    3.7023   -2.6685    0.1859 C   0  0  2  0  0  0  0  0  0  0  0  0
    4.0016   -3.8762   -0.5504 N   0  0  0  0  0  0  0  0  0  0  0  0
    3.0371   -4.7232   -1.0225 C   0  0  0  0  0  0  0  0  0  0  0  0
    1.8435   -4.5135   -0.8892 O   0  0  0  0  0  0  0  0  0  0  0  0
    3.5669   -5.9906   -1.6911 C   0  0  0  0  0  0  0  0  0  0  0  0
    2.6236   -6.4997   -2.7729 C   0  0  1  0  0  0  0  0  0  0  0  0
    2.9080   -5.5727   -4.3392 S   0  0  0  0  0  0  0  0  0  0  0  0
    1.7174   -6.4151   -5.3438 C   0  0  0  0  0  0  0  0  0  0  0  0
    1.0544   -5.7501   -6.3827 C   0  0  0  0  0  0  0  0  0  0  0  0
    0.1778   -6.4270   -7.2311 C   0  0  0  0  0  0  0  0  0  0  0  0
   -0.0536   -7.7889   -7.0163 C   0  0  0  0  0  0  0  0  0  0  0  0
   -1.1595   -8.6560   -8.0542 Cl  0  0  0  0  0  0  0  0  0  0  0  0
    0.5777   -8.4699   -5.9751 C   0  0  0  0  0  0  0  0  0  0  0  0
    1.4800   -7.7922   -5.1417 C   0  0  0  0  0  0  0  0  0  0  0  0
    2.1581   -8.4968   -4.1390 N   0  0  0  0  0  0  0  0  0  0  0  0
    2.7694   -8.0025   -3.0069 C   0  0  0  0  0  0  0  0  0  0  0  0
    3.3397   -8.7413   -2.2279 O   0  0  0  0  0  0  0  0  0  0  0  0
    4.0615   -1.3656   -0.5613 C   0  0  0  0  0  0  0  0  0  0  0  0
    4.5061    2.5955   -0.9729 H   0  0  0  0  0  0  0  0  0  0  0  0
    3.3126    1.3566   -1.4678 H   0  0  0  0  0  0  0  0  0  0  0  0
    5.0468    1.0399   -1.6858 H   0  0  0  0  0  0  0  0  0  0  0  0
    3.3834   -0.8215    2.4127 H   0  0  0  0  0  0  0  0  0  0  0  0
    5.1401   -0.6119    2.4202 H   0  0  0  0  0  0  0  0  0  0  0  0
    4.0505   -3.1731    2.3081 H   0  0  0  0  0  0  0  0  0  0  0  0
    5.5164   -2.7773    1.3782 H   0  0  0  0  0  0  0  0  0  0  0  0
    2.6175   -2.6902    0.3660 H   0  0  0  0  0  0  0  0  0  0  0  0
    4.9749   -4.1127   -0.7085 H   0  0  0  0  0  0  0  0  0  0  0  0
    3.6370   -6.7764   -0.9205 H   0  0  0  0  0  0  0  0  0  0  0  0
    4.5869   -5.8540   -2.0869 H   0  0  0  0  0  0  0  0  0  0  0  0
    1.5899   -6.2944   -2.4441 H   0  0  0  0  0  0  0  0  0  0  0  0
    1.2323   -4.6821   -6.5280 H   0  0  0  0  0  0  0  0  0  0  0  0
   -0.3303   -5.9059   -8.0432 H   0  0  0  0  0  0  0  0  0  0  0  0
    0.3755   -9.5310   -5.8172 H   0  0  0  0  0  0  0  0  0  0  0  0
    2.1750   -9.5110   -4.2002 H   0  0  0  0  0  0  0  0  0  0  0  0
    3.2688   -1.0722   -1.2673 H   0  0  0  0  0  0  0  0  0  0  0  0
    4.9905   -1.5090   -1.1494 H   0  0  0  0  0  0  0  0  0  0  0  0
  1  2  1  0
  1 25  1  0
  1 26  1  0
  1 27  1  0
  2  3  2  0
  2  4  1  0
  4  5  1  0
  4 24  1  0
  5  6  1  0
  5 28  1  0
  5 29  1  0
  6  7  1  0
  6 30  1  0
  6 31  1  0
  7  8  1  0
  7 24  1  0
  7 32  1  1
  8  9  1  0
  8 33  1  0
  9 10  2  0
  9 11  1  0
 11 12  1  0
 11 34  1  0
 11 35  1  0
 12 13  1  0
 12 22  1  0
 12 36  1  1
 13 14  1  0
 14 15  2  0
 14 20  1  0
 15 16  1  0
 15 37  1  0
 16 17  2  0
 16 38  1  0
 17 18  1  0
 17 19  1  0
 19 20  2  0
 19 39  1  0
 20 21  1  0
 21 22  1  0
 21 40  1  0
 22 23  2  0
 24 41  1  0
 24 42  1  0
M  END

