
     RDKit          3D

 37 37  0  0  0  0  0  0  0  0999 V2000
    1.2063    1.6409    0.3549 C   0  0  0  0  0  0  0  0  0  0  0  0
    2.3565    1.7558   -0.6272 C   0  0  0  0  0  0  0  0  0  0  0  0
    3.5483    1.3854    0.0449 O   0  0  0  0  0  0  0  0  0  0  0  0
    4.7324    1.4088   -0.6199 C   0  0  0  0  0  0  0  0  0  0  0  0
    5.8693    1.0392    0.1220 C   0  0  0  0  0  0  0  0  0  0  0  0
    7.1259    1.0344   -0.4726 C   0  0  0  0  0  0  0  0  0  0  0  0
    7.3050    1.3943   -1.8228 C   0  0  0  0  0  0  0  0  0  0  0  0
    8.6804    1.3693   -2.4584 C   0  0  0  0  0  0  0  0  0  0  0  0
    9.2668   -0.0387   -2.6743 C   0  0  0  0  0  0  0  0  0  0  0  0
    8.4667   -0.8924   -3.6568 C   0  0  0  0  0  0  0  0  0  0  0  0
    9.0653   -2.2862   -3.8342 C   0  0  0  0  0  0  0  0  0  0  0  0
   10.0732   -2.6401   -3.2373 O   0  0  0  0  0  0  0  0  0  0  0  0
    8.4363   -3.1521   -4.6988 N   0  0  0  0  0  0  0  0  0  0  0  0
    7.2285   -2.9167   -5.4636 C   0  0  0  0  0  0  0  0  0  0  0  0
    8.9802   -4.4390   -4.8605 N   0  0  0  0  0  0  0  0  0  0  0  0
    6.1636    1.7606   -2.5445 C   0  0  0  0  0  0  0  0  0  0  0  0
    4.8874    1.7729   -1.9646 C   0  0  0  0  0  0  0  0  0  0  0  0
    0.2593    1.9217   -0.1315 H   0  0  0  0  0  0  0  0  0  0  0  0
    1.3653    2.3047    1.2185 H   0  0  0  0  0  0  0  0  0  0  0  0
    1.1149    0.6091    0.7274 H   0  0  0  0  0  0  0  0  0  0  0  0
    2.4427    2.7909   -1.0099 H   0  0  0  0  0  0  0  0  0  0  0  0
    2.1923    1.0959   -1.5008 H   0  0  0  0  0  0  0  0  0  0  0  0
    5.7357    0.7642    1.1704 H   0  0  0  0  0  0  0  0  0  0  0  0
    7.9946    0.7492    0.1285 H   0  0  0  0  0  0  0  0  0  0  0  0
    9.3827    1.9373   -1.8240 H   0  0  0  0  0  0  0  0  0  0  0  0
    8.6427    1.9025   -3.4240 H   0  0  0  0  0  0  0  0  0  0  0  0
    9.3362   -0.5710   -1.7121 H   0  0  0  0  0  0  0  0  0  0  0  0
   10.3043    0.0483   -3.0344 H   0  0  0  0  0  0  0  0  0  0  0  0
    8.4152   -0.3926   -4.6411 H   0  0  0  0  0  0  0  0  0  0  0  0
    7.4215   -0.9866   -3.3148 H   0  0  0  0  0  0  0  0  0  0  0  0
    6.8637   -1.8947   -5.3101 H   0  0  0  0  0  0  0  0  0  0  0  0
    6.4324   -3.6202   -5.1647 H   0  0  0  0  0  0  0  0  0  0  0  0
    7.4182   -3.0636   -6.5402 H   0  0  0  0  0  0  0  0  0  0  0  0
    9.0474   -4.8668   -3.9322 H   0  0  0  0  0  0  0  0  0  0  0  0
    9.9564   -4.3286   -5.1496 H   0  0  0  0  0  0  0  0  0  0  0  0
    6.2646    2.0549   -3.5937 H   0  0  0  0  0  0  0  0  0  0  0  0
    4.0308    2.0705   -2.5697 H   0  0  0  0  0  0  0  0  0  0  0  0
  1  2  1  0
  1 18  1  0
  1 19  1  0
  1 20  1  0
  2  3  1  0
  2 21  1  0
  2 22  1  0
  3  4  1  0
  4  5  2  0
  4 17  1  0
  5  6  1  0
  5 23  1  0
  6  7  2  0
  6 24  1  0
  7  8  1  0
  7 16  1  0
  8  9  1  0
  8 25  1  0
  8 26  1  0
  9 10  1  0
  9 27  1  0
  9 28  1  0
 10 11  1  0
 10 29  1  0
 10 30  1  0
 11 12  2  0
 11 13  1  0
 13 14  1  0
 13 15  1  0
 14 31  1  0
 14 32  1  0
 14 33  1  0
 15 34  1  0
 15 35  1  0
 16 17  2  0
 16 36  1  0
 17 37  1  0
M  END

