
     RDKit          3D

 46 49  0  0  0  0  0  0  0  0999 V2000
    1.1047    0.6143   -2.2503 C   0  0  0  0  0  0  0  0  0  0  0  0
    2.5796    1.0151   -2.2002 C   0  0  0  0  0  0  0  0  0  0  0  0
    3.1251    1.1373   -0.7746 C   0  0  0  0  0  0  0  0  0  0  0  0
    4.6177    1.4870   -0.6896 C   0  0  0  0  0  0  0  0  0  0  0  0
    4.9814    2.7498   -1.3074 N   0  0  0  0  0  0  0  0  0  0  0  0
    5.7140    2.8090   -2.4853 C   0  0  0  0  0  0  0  0  0  0  0  0
    6.1423    1.8680   -3.1257 O   0  0  0  0  0  0  0  0  0  0  0  0
    5.8208    4.2607   -2.7420 C   0  0  0  0  0  0  0  0  0  0  0  0
    6.3260    5.1138   -3.6575 N   0  0  0  0  0  0  0  0  0  0  0  0
    6.8467    4.8999   -4.5001 H   0  0  0  0  0  0  0  0  0  0  0  0
    6.0534    6.3859   -3.3415 N   0  0  0  0  0  0  0  0  0  0  0  0
    5.3529    6.3625   -2.1929 C   0  0  0  0  0  0  0  0  0  0  0  0
    4.8817    7.6229   -1.5893 C   0  0  0  0  0  0  0  0  0  0  0  0
    4.1496    7.6300   -0.3897 C   0  0  0  0  0  0  0  0  0  0  0  0
    3.7023    8.8306    0.1676 C   0  0  0  0  0  0  0  0  0  0  0  0
    3.9784   10.0457   -0.4640 C   0  0  0  0  0  0  0  0  0  0  0  0
    4.7075   10.0502   -1.6590 C   0  0  0  0  0  0  0  0  0  0  0  0
    5.1549    8.8536   -2.2169 C   0  0  0  0  0  0  0  0  0  0  0  0
    5.1888    5.0071   -1.7767 C   0  0  0  0  0  0  0  0  0  0  0  0
    4.5941    4.0677   -0.7502 C   0  0  2  0  0  0  0  0  0  0  0  0
    5.0797    4.2465    0.6844 C   0  0  0  0  0  0  0  0  0  0  0  0
    4.1658    4.3192    1.7428 C   0  0  0  0  0  0  0  0  0  0  0  0
    4.5981    4.4629    3.0651 C   0  0  0  0  0  0  0  0  0  0  0  0
    5.9670    4.5288    3.3297 C   0  0  0  0  0  0  0  0  0  0  0  0
    6.5237    4.7080    4.9764 Cl  0  0  0  0  0  0  0  0  0  0  0  0
    6.8998    4.4524    2.2884 C   0  0  0  0  0  0  0  0  0  0  0  0
    6.4509    4.3125    0.9762 C   0  0  0  0  0  0  0  0  0  0  0  0
    0.7423    0.5399   -3.2879 H   0  0  0  0  0  0  0  0  0  0  0  0
    0.4690    1.3501   -1.7290 H   0  0  0  0  0  0  0  0  0  0  0  0
    0.9366   -0.3638   -1.7689 H   0  0  0  0  0  0  0  0  0  0  0  0
    2.7176    1.9755   -2.7273 H   0  0  0  0  0  0  0  0  0  0  0  0
    3.1878    0.2817   -2.7582 H   0  0  0  0  0  0  0  0  0  0  0  0
    2.9808    0.1818   -0.2389 H   0  0  0  0  0  0  0  0  0  0  0  0
    2.5319    1.8821   -0.2118 H   0  0  0  0  0  0  0  0  0  0  0  0
    5.2131    0.7201   -1.2080 H   0  0  0  0  0  0  0  0  0  0  0  0
    4.9364    1.4967    0.3671 H   0  0  0  0  0  0  0  0  0  0  0  0
    3.9330    6.6922    0.1234 H   0  0  0  0  0  0  0  0  0  0  0  0
    3.1370    8.8140    1.1029 H   0  0  0  0  0  0  0  0  0  0  0  0
    3.6288   10.9850   -0.0280 H   0  0  0  0  0  0  0  0  0  0  0  0
    4.9290   10.9961   -2.1604 H   0  0  0  0  0  0  0  0  0  0  0  0
    5.7225    8.8522   -3.1486 H   0  0  0  0  0  0  0  0  0  0  0  0
    3.4917    4.1517   -0.7473 H   0  0  0  0  0  0  0  0  0  0  0  0
    3.0926    4.2648    1.5376 H   0  0  0  0  0  0  0  0  0  0  0  0
    3.8813    4.5214    3.8856 H   0  0  0  0  0  0  0  0  0  0  0  0
    7.9665    4.5071    2.5117 H   0  0  0  0  0  0  0  0  0  0  0  0
    7.1802    4.2578    0.1642 H   0  0  0  0  0  0  0  0  0  0  0  0
  1  2  1  0
  1 28  1  0
  1 29  1  0
  1 30  1  0
  2  3  1  0
  2 31  1  0
  2 32  1  0
  3  4  1  0
  3 33  1  0
  3 34  1  0
  4  5  1  0
  4 35  1  0
  4 36  1  0
  5  6  1  0
  5 20  1  0
  6  7  2  0
  6  8  1  0
  8  9  1  0
  8 19  2  0
  9 10  1  0
  9 11  1  0
 11 12  2  0
 12 13  1  0
 12 19  1  0
 13 14  2  0
 13 18  1  0
 14 15  1  0
 14 37  1  0
 15 16  2  0
 15 38  1  0
 16 17  1  0
 16 39  1  0
 17 18  2  0
 17 40  1  0
 18 41  1  0
 19 20  1  0
 20 21  1  0
 20 42  1  1
 21 22  2  0
 21 27  1  0
 22 23  1  0
 22 43  1  0
 23 24  2  0
 23 44  1  0
 24 25  1  0
 24 26  1  0
 26 27  2  0
 26 45  1  0
 27 46  1  0
M  END

