
     RDKit          3D

 36 38  0  0  0  0  0  0  0  0999 V2000
    1.0499   -0.0195   -0.3141 C   0  0  0  0  0  0  0  0  0  0  0  0
    2.5542    0.0670   -0.2490 C   0  0  0  0  0  0  0  0  0  0  0  0
    3.2276    1.2936   -0.2904 C   0  0  0  0  0  0  0  0  0  0  0  0
    4.6286    1.3282   -0.2473 C   0  0  0  0  0  0  0  0  0  0  0  0
    5.3164    2.6533   -0.2984 C   0  0  0  0  0  0  0  0  0  0  0  0
    5.0066    3.6459    0.6492 C   0  0  0  0  0  0  0  0  0  0  0  0
    5.6179    4.9013    0.5995 C   0  0  0  0  0  0  0  0  0  0  0  0
    6.5445    5.1922   -0.4058 C   0  0  0  0  0  0  0  0  0  0  0  0
    6.8549    4.2185   -1.3598 C   0  0  0  0  0  0  0  0  0  0  0  0
    6.2493    2.9608   -1.3046 C   0  0  0  0  0  0  0  0  0  0  0  0
    5.3276    0.1040   -0.1411 C   0  0  0  0  0  0  0  0  0  0  0  0
    4.5573   -1.0797   -0.0983 C   0  0  0  0  0  0  0  0  0  0  0  0
    3.2208   -1.0869   -0.1566 N   0  0  0  0  0  0  0  0  0  0  0  0
    5.1978   -2.4450    0.0626 C   0  0  0  0  0  0  0  0  0  0  0  0
    6.7105   -2.4830   -0.1605 C   0  0  2  0  0  0  0  0  0  0  0  0
    7.2259   -3.7915    0.2301 N   0  0  0  0  0  0  0  0  0  0  0  0
    7.3528   -1.2774    0.5423 C   0  0  0  0  0  0  0  0  0  0  0  0
    6.8419    0.0399   -0.0479 C   0  0  0  0  0  0  0  0  0  0  0  0
    0.5792    0.9731   -0.3582 H   0  0  0  0  0  0  0  0  0  0  0  0
    0.6611   -0.5587    0.5646 H   0  0  0  0  0  0  0  0  0  0  0  0
    0.7398   -0.5960   -1.2008 H   0  0  0  0  0  0  0  0  0  0  0  0
    2.6658    2.2264   -0.3763 H   0  0  0  0  0  0  0  0  0  0  0  0
    4.2863    3.4221    1.4402 H   0  0  0  0  0  0  0  0  0  0  0  0
    5.3694    5.6555    1.3507 H   0  0  0  0  0  0  0  0  0  0  0  0
    7.0213    6.1747   -0.4474 H   0  0  0  0  0  0  0  0  0  0  0  0
    7.5703    4.4402   -2.1560 H   0  0  0  0  0  0  0  0  0  0  0  0
    6.4866    2.2139   -2.0653 H   0  0  0  0  0  0  0  0  0  0  0  0
    4.6859   -3.1592   -0.5997 H   0  0  0  0  0  0  0  0  0  0  0  0
    4.9818   -2.7949    1.0910 H   0  0  0  0  0  0  0  0  0  0  0  0
    6.9023   -2.3753   -1.2456 H   0  0  0  0  0  0  0  0  0  0  0  0
    7.1016   -3.9289    1.2354 H   0  0  0  0  0  0  0  0  0  0  0  0
    8.2308   -3.8432    0.0595 H   0  0  0  0  0  0  0  0  0  0  0  0
    8.4515   -1.3269    0.4522 H   0  0  0  0  0  0  0  0  0  0  0  0
    7.1202   -1.3287    1.6228 H   0  0  0  0  0  0  0  0  0  0  0  0
    7.2762    0.1610   -1.0573 H   0  0  0  0  0  0  0  0  0  0  0  0
    7.2167    0.8971    0.5331 H   0  0  0  0  0  0  0  0  0  0  0  0
  1  2  1  0
  1 19  1  0
  1 20  1  0
  1 21  1  0
  2  3  2  0
  2 13  1  0
  3  4  1  0
  3 22  1  0
  4  5  1  0
  4 11  2  0
  5  6  2  0
  5 10  1  0
  6  7  1  0
  6 23  1  0
  7  8  2  0
  7 24  1  0
  8  9  1  0
  8 25  1  0
  9 10  2  0
  9 26  1  0
 10 27  1  0
 11 12  1  0
 11 18  1  0
 12 13  2  0
 12 14  1  0
 14 15  1  0
 14 28  1  0
 14 29  1  0
 15 16  1  0
 15 17  1  0
 15 30  1  6
 16 31  1  0
 16 32  1  0
 17 18  1  0
 17 33  1  0
 17 34  1  0
 18 35  1  0
 18 36  1  0
M  END

