
     RDKit          3D

 45 47  0  0  0  0  0  0  0  0999 V2000
    2.1370    0.5924    0.5614 C   0  0  0  0  0  0  0  0  0  0  0  0
    3.0862   -0.2145   -0.3336 C   0  0  1  0  0  0  0  0  0  0  0  0
    2.6282   -1.6730   -0.5419 C   0  0  0  0  0  0  0  0  0  0  0  0
    1.4118   -1.7724   -1.4726 C   0  0  0  0  0  0  0  0  0  0  0  0
    1.6651   -1.0382   -2.7921 C   0  0  0  0  0  0  0  0  0  0  0  0
    2.1048    0.3382   -2.5500 N   0  0  0  0  0  0  0  0  0  0  0  0
    1.4432    1.3692   -3.1510 C   0  0  0  0  0  0  0  0  0  0  0  0
    0.4710    1.2009   -3.8771 O   0  0  0  0  0  0  0  0  0  0  0  0
    1.9608    2.7959   -2.8950 C   0  0  0  0  0  0  0  0  0  0  0  0
    1.1023    3.7108   -3.5797 N   0  0  0  0  0  0  0  0  0  0  0  0
    1.3048    5.0635   -3.6732 C   0  0  0  0  0  0  0  0  0  0  0  0
    2.3547    5.7207   -2.9944 C   0  0  0  0  0  0  0  0  0  0  0  0
    2.5251    7.1012   -3.1284 C   0  0  0  0  0  0  0  0  0  0  0  0
    1.6718    7.8660   -3.9188 C   0  0  0  0  0  0  0  0  0  0  0  0
    0.6099    7.2295   -4.5931 C   0  0  0  0  0  0  0  0  0  0  0  0
   -0.2647    8.0641   -5.4310 C   0  0  0  0  0  0  0  0  0  0  0  0
    0.0960    9.2171   -5.9811 N   0  0  0  0  0  0  0  0  0  0  0  0
   -0.9767    9.6862   -6.6399 N   0  0  0  0  0  0  0  0  0  0  0  0
   -1.9787    8.8880   -6.5233 N   0  0  0  0  0  0  0  0  0  0  0  0
   -1.5674    7.8510   -5.7632 N   0  0  0  0  0  0  0  0  0  0  0  0
   -2.5108    6.8076   -5.4108 C   0  0  0  0  0  0  0  0  0  0  0  0
    0.4386    5.8452   -4.4740 C   0  0  0  0  0  0  0  0  0  0  0  0
    3.2927    0.4552   -1.7081 C   0  0  0  0  0  0  0  0  0  0  0  0
    1.9983    0.0974    1.5356 H   0  0  0  0  0  0  0  0  0  0  0  0
    1.1416    0.7138    0.1060 H   0  0  0  0  0  0  0  0  0  0  0  0
    2.5372    1.6009    0.7563 H   0  0  0  0  0  0  0  0  0  0  0  0
    4.0756   -0.2355    0.1566 H   0  0  0  0  0  0  0  0  0  0  0  0
    2.4118   -2.1443    0.4311 H   0  0  0  0  0  0  0  0  0  0  0  0
    3.4634   -2.2453   -0.9849 H   0  0  0  0  0  0  0  0  0  0  0  0
    0.5182   -1.3455   -0.9871 H   0  0  0  0  0  0  0  0  0  0  0  0
    1.1782   -2.8286   -1.6854 H   0  0  0  0  0  0  0  0  0  0  0  0
    0.7662   -0.9935   -3.4181 H   0  0  0  0  0  0  0  0  0  0  0  0
    2.4531   -1.5633   -3.3665 H   0  0  0  0  0  0  0  0  0  0  0  0
    3.0126    2.8653   -3.2441 H   0  0  0  0  0  0  0  0  0  0  0  0
    1.9880    2.9889   -1.8040 H   0  0  0  0  0  0  0  0  0  0  0  0
    0.3816    3.2571   -4.1344 H   0  0  0  0  0  0  0  0  0  0  0  0
    3.0418    5.1540   -2.3644 H   0  0  0  0  0  0  0  0  0  0  0  0
    3.3485    7.5874   -2.5985 H   0  0  0  0  0  0  0  0  0  0  0  0
    1.8064    8.9416   -4.0313 H   0  0  0  0  0  0  0  0  0  0  0  0
   -3.5179    7.2133   -5.5671 H   0  0  0  0  0  0  0  0  0  0  0  0
   -2.3835    6.5230   -4.3579 H   0  0  0  0  0  0  0  0  0  0  0  0
   -2.3808    5.9185   -6.0467 H   0  0  0  0  0  0  0  0  0  0  0  0
   -0.3479    5.3302   -5.0272 H   0  0  0  0  0  0  0  0  0  0  0  0
    3.5659    1.5091   -1.5784 H   0  0  0  0  0  0  0  0  0  0  0  0
    4.1403   -0.0341   -2.2255 H   0  0  0  0  0  0  0  0  0  0  0  0
  1  2  1  0
  1 24  1  0
  1 25  1  0
  1 26  1  0
  2  3  1  0
  2 23  1  0
  2 27  1  1
  3  4  1  0
  3 28  1  0
  3 29  1  0
  4  5  1  0
  4 30  1  0
  4 31  1  0
  5  6  1  0
  5 32  1  0
  5 33  1  0
  6  7  1  0
  6 23  1  0
  7  8  2  0
  7  9  1  0
  9 10  1  0
  9 34  1  0
  9 35  1  0
 10 11  1  0
 10 36  1  0
 11 12  2  0
 11 22  1  0
 12 13  1  0
 12 37  1  0
 13 14  2  0
 13 38  1  0
 14 15  1  0
 14 39  1  0
 15 16  1  0
 15 22  2  0
 16 17  2  0
 16 20  1  0
 17 18  1  0
 18 19  2  0
 19 20  1  0
 20 21  1  0
 21 40  1  0
 21 41  1  0
 21 42  1  0
 22 43  1  0
 23 44  1  0
 23 45  1  0
M  END

