
     RDKit          3D

 41 42  0  0  0  0  0  0  0  0999 V2000
    0.9997    0.1014    1.1553 C   0  0  0  0  0  0  0  0  0  0  0  0
    2.2351   -0.0874    0.3147 C   0  0  0  0  0  0  0  0  0  0  0  0
    2.6106    0.8486   -0.6683 C   0  0  0  0  0  0  0  0  0  0  0  0
    3.7141    0.7264   -1.3988 N   0  0  0  0  0  0  0  0  0  0  0  0
    4.5111   -0.3089   -1.2455 N   0  0  0  0  0  0  0  0  0  0  0  0
    4.2213   -1.2805   -0.3518 C   0  0  0  0  0  0  0  0  0  0  0  0
    5.0912   -2.3508   -0.3092 N   0  0  0  0  0  0  0  0  0  0  0  0
    4.9759   -3.3924    0.7020 C   0  0  0  0  0  0  0  0  0  0  0  0
    5.5614   -4.7276    0.1977 C   0  0  0  0  0  0  0  0  0  0  0  0
    6.8900   -4.6319   -0.3742 N   0  0  0  0  0  0  0  0  0  0  0  0
    8.0719   -4.9928    0.4429 C   0  0  1  0  0  0  0  0  0  0  0  0
    9.3712   -4.6509   -0.3018 C   0  0  0  0  0  0  0  0  0  0  0  0
    8.1114   -4.3069    1.8266 C   0  0  0  0  0  0  0  0  0  0  0  0
    8.0268   -6.5421    0.6302 C   0  0  0  0  0  0  0  0  0  0  0  0
    9.1574   -7.0707    1.3880 N   0  0  0  0  0  0  0  0  0  0  0  0
    6.9040   -3.6084   -1.4066 C   0  0  0  0  0  0  0  0  0  0  0  0
    6.4128   -2.2379   -0.9320 C   0  0  0  0  0  0  0  0  0  0  0  0
    3.0746   -1.1791    0.4776 C   0  0  0  0  0  0  0  0  0  0  0  0
    0.4281    0.9857    0.8383 H   0  0  0  0  0  0  0  0  0  0  0  0
    1.2616    0.2319    2.2186 H   0  0  0  0  0  0  0  0  0  0  0  0
    0.3356   -0.7758    1.0907 H   0  0  0  0  0  0  0  0  0  0  0  0
    2.0037    1.7382   -0.8655 H   0  0  0  0  0  0  0  0  0  0  0  0
    3.9165   -3.5652    0.9374 H   0  0  0  0  0  0  0  0  0  0  0  0
    5.4764   -3.0825    1.6419 H   0  0  0  0  0  0  0  0  0  0  0  0
    4.8691   -5.1164   -0.5757 H   0  0  0  0  0  0  0  0  0  0  0  0
    5.5425   -5.4492    1.0266 H   0  0  0  0  0  0  0  0  0  0  0  0
    9.5182   -3.5659   -0.4100 H   0  0  0  0  0  0  0  0  0  0  0  0
    9.3988   -5.1092   -1.3035 H   0  0  0  0  0  0  0  0  0  0  0  0
   10.2238   -5.0332    0.2777 H   0  0  0  0  0  0  0  0  0  0  0  0
    8.2099   -3.2146    1.7269 H   0  0  0  0  0  0  0  0  0  0  0  0
    8.9623   -4.6907    2.4074 H   0  0  0  0  0  0  0  0  0  0  0  0
    7.2008   -4.5161    2.4097 H   0  0  0  0  0  0  0  0  0  0  0  0
    7.9119   -6.9800   -0.3815 H   0  0  0  0  0  0  0  0  0  0  0  0
    7.1085   -6.7988    1.1818 H   0  0  0  0  0  0  0  0  0  0  0  0
    9.9471   -7.2748    0.7773 H   0  0  0  0  0  0  0  0  0  0  0  0
    8.9125   -7.9504    1.8384 H   0  0  0  0  0  0  0  0  0  0  0  0
    6.2365   -3.9370   -2.2282 H   0  0  0  0  0  0  0  0  0  0  0  0
    7.9034   -3.4999   -1.8430 H   0  0  0  0  0  0  0  0  0  0  0  0
    6.3319   -1.5366   -1.7702 H   0  0  0  0  0  0  0  0  0  0  0  0
    7.1344   -1.8060   -0.2075 H   0  0  0  0  0  0  0  0  0  0  0  0
    2.8489   -1.9291    1.2362 H   0  0  0  0  0  0  0  0  0  0  0  0
  1  2  1  0
  1 19  1  0
  1 20  1  0
  1 21  1  0
  2  3  2  0
  2 18  1  0
  3  4  1  0
  3 22  1  0
  4  5  2  0
  5  6  1  0
  6  7  1  0
  6 18  2  0
  7  8  1  0
  7 17  1  0
  8  9  1  0
  8 23  1  0
  8 24  1  0
  9 10  1  0
  9 25  1  0
  9 26  1  0
 10 11  1  0
 10 16  1  0
 11 12  1  6
 11 13  1  0
 11 14  1  0
 12 27  1  0
 12 28  1  0
 12 29  1  0
 13 30  1  0
 13 31  1  0
 13 32  1  0
 14 15  1  0
 14 33  1  0
 14 34  1  0
 15 35  1  0
 15 36  1  0
 16 17  1  0
 16 37  1  0
 16 38  1  0
 17 39  1  0
 17 40  1  0
 18 41  1  0
M  END

