
     RDKit          3D

 40 41  0  0  0  0  0  0  0  0999 V2000
    0.8390    0.0382    0.1721 C   0  0  0  0  0  0  0  0  0  0  0  0
    2.2775    0.0345   -0.0108 N   0  0  0  0  0  0  0  0  0  0  0  0
    2.8781   -1.2838   -0.1772 C   0  0  0  0  0  0  0  0  0  0  0  0
    2.7263   -1.8683   -1.5962 C   0  0  0  0  0  0  0  0  0  0  0  0
    3.2170   -0.9161   -2.7203 C   0  0  2  0  0  0  0  0  0  0  0  0
    2.7434   -1.4460   -4.0835 C   0  0  0  0  0  0  0  0  0  0  0  0
    4.7664   -0.8740   -2.6996 C   0  0  0  0  0  0  0  0  0  0  0  0
    5.3520    0.0074   -3.7044 N   0  0  0  0  0  0  0  0  0  0  0  0
    6.8133   -0.0007   -3.6982 C   0  0  0  0  0  0  0  0  0  0  0  0
    7.3810    0.9375   -4.7151 C   0  0  0  0  0  0  0  0  0  0  0  0
    8.0990    2.0051   -4.4425 N   0  0  0  0  0  0  0  0  0  0  0  0
    8.4211    2.6105   -5.6271 N   0  0  0  0  0  0  0  0  0  0  0  0
    7.8864    1.8961   -6.5849 C   0  0  0  0  0  0  0  0  0  0  0  0
    7.2088    0.8223   -6.0736 N   0  0  0  0  0  0  0  0  0  0  0  0
    6.4995   -0.2192   -6.7956 C   0  0  0  0  0  0  0  0  0  0  0  0
    2.5926    0.4813   -2.4612 C   0  0  0  0  0  0  0  0  0  0  0  0
    2.7751    0.9704   -1.0123 C   0  0  0  0  0  0  0  0  0  0  0  0
    0.5732   -0.6035    1.0281 H   0  0  0  0  0  0  0  0  0  0  0  0
    0.2416   -0.3131   -0.6992 H   0  0  0  0  0  0  0  0  0  0  0  0
    0.4986    1.0596    0.4088 H   0  0  0  0  0  0  0  0  0  0  0  0
    2.4341   -1.9728    0.5599 H   0  0  0  0  0  0  0  0  0  0  0  0
    3.9493   -1.2075    0.0827 H   0  0  0  0  0  0  0  0  0  0  0  0
    1.6614   -2.0948   -1.7789 H   0  0  0  0  0  0  0  0  0  0  0  0
    3.2591   -2.8340   -1.6615 H   0  0  0  0  0  0  0  0  0  0  0  0
    3.1470   -2.4541   -4.2775 H   0  0  0  0  0  0  0  0  0  0  0  0
    3.0738   -0.7878   -4.9006 H   0  0  0  0  0  0  0  0  0  0  0  0
    1.6439   -1.5130   -4.1184 H   0  0  0  0  0  0  0  0  0  0  0  0
    5.1334   -1.8968   -2.8997 H   0  0  0  0  0  0  0  0  0  0  0  0
    5.1285   -0.6235   -1.6803 H   0  0  0  0  0  0  0  0  0  0  0  0
    5.0349    0.9649   -3.5551 H   0  0  0  0  0  0  0  0  0  0  0  0
    7.1504   -1.0334   -3.9040 H   0  0  0  0  0  0  0  0  0  0  0  0
    7.2592    0.2880   -2.7248 H   0  0  0  0  0  0  0  0  0  0  0  0
    7.9491    2.1079   -7.6522 H   0  0  0  0  0  0  0  0  0  0  0  0
    6.1776    0.1668   -7.7728 H   0  0  0  0  0  0  0  0  0  0  0  0
    5.6166   -0.5140   -6.2125 H   0  0  0  0  0  0  0  0  0  0  0  0
    7.1405   -1.1010   -6.9592 H   0  0  0  0  0  0  0  0  0  0  0  0
    1.5136    0.4200   -2.6861 H   0  0  0  0  0  0  0  0  0  0  0  0
    2.9939    1.2272   -3.1698 H   0  0  0  0  0  0  0  0  0  0  0  0
    2.2700    1.9406   -0.8755 H   0  0  0  0  0  0  0  0  0  0  0  0
    3.8474    1.1519   -0.8118 H   0  0  0  0  0  0  0  0  0  0  0  0
  1  2  1  0
  1 18  1  0
  1 19  1  0
  1 20  1  0
  2  3  1  0
  2 17  1  0
  3  4  1  0
  3 21  1  0
  3 22  1  0
  4  5  1  0
  4 23  1  0
  4 24  1  0
  5  6  1  6
  5  7  1  0
  5 16  1  0
  6 25  1  0
  6 26  1  0
  6 27  1  0
  7  8  1  0
  7 28  1  0
  7 29  1  0
  8  9  1  0
  8 30  1  0
  9 10  1  0
  9 31  1  0
  9 32  1  0
 10 11  2  0
 10 14  1  0
 11 12  1  0
 12 13  2  0
 13 14  1  0
 13 33  1  0
 14 15  1  0
 15 34  1  0
 15 35  1  0
 15 36  1  0
 16 17  1  0
 16 37  1  0
 16 38  1  0
 17 39  1  0
 17 40  1  0
M  END

