
     RDKit          3D

 48 50  0  0  0  0  0  0  0  0999 V2000
    6.0944   -0.3664   -4.4607 C   0  0  0  0  0  0  0  0  0  0  0  0
    6.0004   -0.1747   -2.9464 C   0  0  0  0  0  0  0  0  0  0  0  0
    6.5406   -1.3623   -2.1433 C   0  0  0  0  0  0  0  0  0  0  0  0
    6.4500   -1.1779   -0.6258 C   0  0  0  0  0  0  0  0  0  0  0  0
    6.9887   -2.3661    0.1774 C   0  0  0  0  0  0  0  0  0  0  0  0
    6.8910   -2.1721    1.6959 C   0  0  0  0  0  0  0  0  0  0  0  0
    7.3516   -3.3688    2.5397 C   0  0  0  0  0  0  0  0  0  0  0  0
    8.8590   -3.6477    2.4507 C   0  0  0  0  0  0  0  0  0  0  0  0
    9.3193   -4.7476    3.3042 N   0  0  0  0  0  0  0  0  0  0  0  0
    9.3472   -6.0485    2.7959 C   0  0  0  0  0  0  0  0  0  0  0  0
    8.8442   -6.3538    1.5059 C   0  0  0  0  0  0  0  0  0  0  0  0
    8.8984   -7.6502    1.0088 C   0  0  0  0  0  0  0  0  0  0  0  0
    9.4464   -8.6976    1.7661 C   0  0  0  0  0  0  0  0  0  0  0  0
    9.9301   -8.4174    3.0343 C   0  0  0  0  0  0  0  0  0  0  0  0
    9.8865   -7.1142    3.5632 C   0  0  0  0  0  0  0  0  0  0  0  0
   10.4083   -6.8914    4.9259 C   0  0  0  0  0  0  0  0  0  0  0  0
   10.9043   -7.7901    5.5977 O   0  0  0  0  0  0  0  0  0  0  0  0
   10.2700   -5.5097    5.4266 C   0  0  0  0  0  0  0  0  0  0  0  0
   10.6935   -5.2279    6.7385 C   0  0  0  0  0  0  0  0  0  0  0  0
   10.5825   -3.9545    7.2745 C   0  0  0  0  0  0  0  0  0  0  0  0
   10.0283   -2.9373    6.4816 C   0  0  0  0  0  0  0  0  0  0  0  0
    9.6036   -3.1875    5.1824 C   0  0  0  0  0  0  0  0  0  0  0  0
    9.7219   -4.4817    4.6152 C   0  0  0  0  0  0  0  0  0  0  0  0
    5.6976    0.5055   -5.0049 H   0  0  0  0  0  0  0  0  0  0  0  0
    5.5235   -1.2512   -4.7893 H   0  0  0  0  0  0  0  0  0  0  0  0
    7.1393   -0.5118   -4.7828 H   0  0  0  0  0  0  0  0  0  0  0  0
    4.9478    0.0062   -2.6617 H   0  0  0  0  0  0  0  0  0  0  0  0
    6.5497    0.7393   -2.6552 H   0  0  0  0  0  0  0  0  0  0  0  0
    7.5943   -1.5441   -2.4272 H   0  0  0  0  0  0  0  0  0  0  0  0
    5.9914   -2.2776   -2.4334 H   0  0  0  0  0  0  0  0  0  0  0  0
    5.3969   -0.9952   -0.3420 H   0  0  0  0  0  0  0  0  0  0  0  0
    7.0001   -0.2634   -0.3357 H   0  0  0  0  0  0  0  0  0  0  0  0
    8.0383   -2.5470   -0.1179 H   0  0  0  0  0  0  0  0  0  0  0  0
    6.4334   -3.2796   -0.1069 H   0  0  0  0  0  0  0  0  0  0  0  0
    5.8419   -1.9477    1.9564 H   0  0  0  0  0  0  0  0  0  0  0  0
    7.4671   -1.2735    1.9871 H   0  0  0  0  0  0  0  0  0  0  0  0
    6.7962   -4.2741    2.2396 H   0  0  0  0  0  0  0  0  0  0  0  0
    7.0906   -3.1917    3.5960 H   0  0  0  0  0  0  0  0  0  0  0  0
    9.4262   -2.7456    2.7185 H   0  0  0  0  0  0  0  0  0  0  0  0
    9.1561   -3.8752    1.4195 H   0  0  0  0  0  0  0  0  0  0  0  0
    8.3915   -5.5831    0.8857 H   0  0  0  0  0  0  0  0  0  0  0  0
    8.4985   -7.8482    0.0108 H   0  0  0  0  0  0  0  0  0  0  0  0
    9.4837   -9.7124    1.3640 H   0  0  0  0  0  0  0  0  0  0  0  0
   10.3621   -9.1898    3.6738 H   0  0  0  0  0  0  0  0  0  0  0  0
   11.1108   -6.0616    7.3067 H   0  0  0  0  0  0  0  0  0  0  0  0
   10.9130   -3.7452    8.2942 H   0  0  0  0  0  0  0  0  0  0  0  0
    9.9189   -1.9274    6.8858 H   0  0  0  0  0  0  0  0  0  0  0  0
    9.1647   -2.3676    4.6177 H   0  0  0  0  0  0  0  0  0  0  0  0
  1  2  1  0
  1 24  1  0
  1 25  1  0
  1 26  1  0
  2  3  1  0
  2 27  1  0
  2 28  1  0
  3  4  1  0
  3 29  1  0
  3 30  1  0
  4  5  1  0
  4 31  1  0
  4 32  1  0
  5  6  1  0
  5 33  1  0
  5 34  1  0
  6  7  1  0
  6 35  1  0
  6 36  1  0
  7  8  1  0
  7 37  1  0
  7 38  1  0
  8  9  1  0
  8 39  1  0
  8 40  1  0
  9 10  1  0
  9 23  1  0
 10 11  2  0
 10 15  1  0
 11 12  1  0
 11 41  1  0
 12 13  2  0
 12 42  1  0
 13 14  1  0
 13 43  1  0
 14 15  2  0
 14 44  1  0
 15 16  1  0
 16 17  2  0
 16 18  1  0
 18 19  1  0
 18 23  2  0
 19 20  2  0
 19 45  1  0
 20 21  1  0
 20 46  1  0
 21 22  2  0
 21 47  1  0
 22 23  1  0
 22 48  1  0
M  END

