
     RDKit          3D

 67 71  0  0  0  0  0  0  0  0999 V2000
    3.2603   -6.3679    1.3965 C   0  0  0  0  0  0  0  0  0  0  0  0
    4.7202   -5.9120    1.1973 C   0  0  1  0  0  0  0  0  0  0  0  0
    5.3971   -5.9027    2.5860 C   0  0  0  0  0  0  0  0  0  0  0  0
    5.3756   -6.9370    0.2383 C   0  0  0  0  0  0  0  0  0  0  0  0
    6.6354   -7.3623    0.5434 N   0  0  0  0  0  0  0  0  0  0  0  0
    4.7984   -7.3522   -0.7551 O   0  0  0  0  0  0  0  0  0  0  0  0
    4.7706   -4.4390    0.6166 C   0  0  1  0  0  0  0  0  0  0  0  0
    6.1761   -3.9383    0.1945 C   0  0  0  0  0  0  0  0  0  0  0  0
    6.5954   -4.3002   -1.2393 C   0  0  0  0  0  0  0  0  0  0  0  0
    5.5478   -3.9075   -2.2799 C   0  0  2  0  0  0  0  0  0  0  0  0
    5.4231   -2.4493   -2.3495 O   0  0  0  0  0  0  0  0  0  0  0  0
    6.3162   -1.7857   -3.0630 C   0  0  0  0  0  0  0  0  0  0  0  0
    7.3413   -2.2593   -3.7182 N   0  0  0  0  0  0  0  0  0  0  0  0
    7.9334   -1.1458   -4.2923 C   0  0  0  0  0  0  0  0  0  0  0  0
    9.0203   -1.1283   -5.0452 N   0  0  0  0  0  0  0  0  0  0  0  0
    9.4716    0.0464   -5.5230 C   0  0  0  0  0  0  0  0  0  0  0  0
   10.7050   -0.0416   -6.3542 C   0  0  0  0  0  0  0  0  0  0  0  0
   10.9029   -1.1795   -7.1537 C   0  0  0  0  0  0  0  0  0  0  0  0
   12.0526   -1.3510   -7.9205 C   0  0  0  0  0  0  0  0  0  0  0  0
   13.0833   -0.3843   -7.9226 C   0  0  0  0  0  0  0  0  0  0  0  0
   14.2280   -0.5172   -8.7226 N   0  0  0  0  0  0  0  0  0  0  0  0
   14.3434   -1.6592   -9.6186 C   0  0  0  0  0  0  0  0  0  0  0  0
   15.3995   -1.3937  -10.6905 C   0  0  0  0  0  0  0  0  0  0  0  0
   16.6447   -1.0377  -10.1312 O   0  0  0  0  0  0  0  0  0  0  0  0
   16.5229    0.1194   -9.3328 C   0  0  0  0  0  0  0  0  0  0  0  0
   15.5225   -0.0843   -8.1994 C   0  0  0  0  0  0  0  0  0  0  0  0
   12.8970    0.7447   -7.0927 C   0  0  0  0  0  0  0  0  0  0  0  0
   11.7413    0.9097   -6.3358 C   0  0  0  0  0  0  0  0  0  0  0  0
    8.7615    1.2503   -5.2485 C   0  0  0  0  0  0  0  0  0  0  0  0
    9.2102    2.7962   -5.9544 Cl  0  0  0  0  0  0  0  0  0  0  0  0
    7.6142    1.2573   -4.4424 C   0  0  0  0  0  0  0  0  0  0  0  0
    7.2067    0.0295   -3.9484 C   0  0  0  0  0  0  0  0  0  0  0  0
    6.1700   -0.4152   -3.1475 N   0  0  0  0  0  0  0  0  0  0  0  0
    5.4238    0.1210   -2.7232 H   0  0  0  0  0  0  0  0  0  0  0  0
    4.1693   -4.4466   -1.9214 C   0  0  0  0  0  0  0  0  0  0  0  0
    3.7539   -4.0681   -0.4927 C   0  0  0  0  0  0  0  0  0  0  0  0
    3.2274   -7.3082    1.9701 H   0  0  0  0  0  0  0  0  0  0  0  0
    2.7640   -6.5531    0.4363 H   0  0  0  0  0  0  0  0  0  0  0  0
    2.6907   -5.6107    1.9586 H   0  0  0  0  0  0  0  0  0  0  0  0
    5.4340   -6.9134    3.0220 H   0  0  0  0  0  0  0  0  0  0  0  0
    4.8201   -5.2686    3.2768 H   0  0  0  0  0  0  0  0  0  0  0  0
    6.4211   -5.4966    2.5688 H   0  0  0  0  0  0  0  0  0  0  0  0
    7.1415   -7.0600    1.3625 H   0  0  0  0  0  0  0  0  0  0  0  0
    7.0699   -8.0295   -0.0839 H   0  0  0  0  0  0  0  0  0  0  0  0
    4.4770   -3.8331    1.4918 H   0  0  0  0  0  0  0  0  0  0  0  0
    6.9494   -4.2841    0.8987 H   0  0  0  0  0  0  0  0  0  0  0  0
    6.1722   -2.8386    0.2808 H   0  0  0  0  0  0  0  0  0  0  0  0
    6.7592   -5.3836   -1.3410 H   0  0  0  0  0  0  0  0  0  0  0  0
    7.5539   -3.8219   -1.4922 H   0  0  0  0  0  0  0  0  0  0  0  0
    5.8659   -4.2454   -3.2766 H   0  0  0  0  0  0  0  0  0  0  0  0
   10.1367   -1.9567   -7.1521 H   0  0  0  0  0  0  0  0  0  0  0  0
   12.1467   -2.2630   -8.5090 H   0  0  0  0  0  0  0  0  0  0  0  0
   13.3805   -1.8311  -10.1210 H   0  0  0  0  0  0  0  0  0  0  0  0
   14.6044   -2.5883   -9.0664 H   0  0  0  0  0  0  0  0  0  0  0  0
   15.0386   -0.5886  -11.3640 H   0  0  0  0  0  0  0  0  0  0  0  0
   15.5607   -2.3012  -11.2921 H   0  0  0  0  0  0  0  0  0  0  0  0
   16.2036    0.9825   -9.9537 H   0  0  0  0  0  0  0  0  0  0  0  0
   17.5206    0.3376   -8.9220 H   0  0  0  0  0  0  0  0  0  0  0  0
   15.4181    0.8596   -7.6500 H   0  0  0  0  0  0  0  0  0  0  0  0
   15.9274   -0.8377   -7.4895 H   0  0  0  0  0  0  0  0  0  0  0  0
   13.6578    1.5246   -7.0465 H   0  0  0  0  0  0  0  0  0  0  0  0
   11.6567    1.7982   -5.7104 H   0  0  0  0  0  0  0  0  0  0  0  0
    7.0846    2.1914   -4.2494 H   0  0  0  0  0  0  0  0  0  0  0  0
    4.2000   -5.5404   -2.0286 H   0  0  0  0  0  0  0  0  0  0  0  0
    3.4301   -4.0621   -2.6430 H   0  0  0  0  0  0  0  0  0  0  0  0
    2.7618   -4.4862   -0.2719 H   0  0  0  0  0  0  0  0  0  0  0  0
    3.6319   -2.9721   -0.4532 H   0  0  0  0  0  0  0  0  0  0  0  0
  1  2  1  0
  1 37  1  0
  1 38  1  0
  1 39  1  0
  2  3  1  0
  2  4  1  6
  2  7  1  0
  3 40  1  0
  3 41  1  0
  3 42  1  0
  4  5  1  0
  4  6  2  0
  5 43  1  0
  5 44  1  0
  7  8  1  0
  7 36  1  0
  7 45  1  1
  8  9  1  0
  8 46  1  0
  8 47  1  0
  9 10  1  0
  9 48  1  0
  9 49  1  0
 10 11  1  0
 10 35  1  0
 10 50  1  6
 11 12  1  0
 12 13  2  0
 12 33  1  0
 13 14  1  0
 14 15  2  0
 14 32  1  0
 15 16  1  0
 16 17  1  0
 16 29  2  0
 17 18  2  0
 17 28  1  0
 18 19  1  0
 18 51  1  0
 19 20  2  0
 19 52  1  0
 20 21  1  0
 20 27  1  0
 21 22  1  0
 21 26  1  0
 22 23  1  0
 22 53  1  0
 22 54  1  0
 23 24  1  0
 23 55  1  0
 23 56  1  0
 24 25  1  0
 25 26  1  0
 25 57  1  0
 25 58  1  0
 26 59  1  0
 26 60  1  0
 27 28  2  0
 27 61  1  0
 28 62  1  0
 29 30  1  0
 29 31  1  0
 31 32  2  0
 31 63  1  0
 32 33  1  0
 33 34  1  0
 35 36  1  0
 35 64  1  0
 35 65  1  0
 36 66  1  0
 36 67  1  0
M  END

