
     RDKit          3D

 36 37  0  0  0  0  0  0  0  0999 V2000
    2.6550   -1.2348    0.9335 C   0  0  0  0  0  0  0  0  0  0  0  0
    4.1245   -0.8828    0.7758 C   0  0  0  0  0  0  0  0  0  0  0  0
    4.4570    0.3368    1.4680 O   0  0  0  0  0  0  0  0  0  0  0  0
    4.2815    1.4960    0.8092 C   0  0  0  0  0  0  0  0  0  0  0  0
    3.8353    1.5811   -0.3085 O   0  0  0  0  0  0  0  0  0  0  0  0
    4.7365    2.6741    1.6479 C   0  0  0  0  0  0  0  0  0  0  0  0
    6.2532    2.6547    1.8768 C   0  0  1  0  0  0  0  0  0  0  0  0
    6.9595    2.4791    0.6559 O   0  0  0  0  0  0  0  0  0  0  0  0
    6.7426    3.9039    2.6162 C   0  0  0  0  0  0  0  0  0  0  0  0
    8.1739    3.8413    2.7657 N   0  0  0  0  0  0  0  0  0  0  0  0
    8.9162    4.8566    3.3589 C   0  0  0  0  0  0  0  0  0  0  0  0
   10.3178    4.8798    3.1881 C   0  0  0  0  0  0  0  0  0  0  0  0
   11.1265    5.8548    3.7950 C   0  0  0  0  0  0  0  0  0  0  0  0
   10.5013    6.8051    4.5828 C   0  0  0  0  0  0  0  0  0  0  0  0
    9.1188    6.7936    4.7546 C   0  0  0  0  0  0  0  0  0  0  0  0
    8.2962    5.8514    4.1603 C   0  0  0  0  0  0  0  0  0  0  0  0
    8.7522    7.8552    5.5374 O   0  0  0  0  0  0  0  0  0  0  0  0
    9.9726    8.3947    6.0437 C   0  0  0  0  0  0  0  0  0  0  0  0
   11.0330    7.8879    5.2492 O   0  0  0  0  0  0  0  0  0  0  0  0
    2.4510   -2.2097    0.4623 H   0  0  0  0  0  0  0  0  0  0  0  0
    2.0182   -0.4810    0.4471 H   0  0  0  0  0  0  0  0  0  0  0  0
    2.3773   -1.3027    1.9970 H   0  0  0  0  0  0  0  0  0  0  0  0
    4.3923   -0.7723   -0.2851 H   0  0  0  0  0  0  0  0  0  0  0  0
    4.7704   -1.6467    1.2323 H   0  0  0  0  0  0  0  0  0  0  0  0
    4.2176    2.6517    2.6198 H   0  0  0  0  0  0  0  0  0  0  0  0
    4.4352    3.5899    1.1158 H   0  0  0  0  0  0  0  0  0  0  0  0
    6.5128    1.7698    2.4789 H   0  0  0  0  0  0  0  0  0  0  0  0
    6.6523    3.1442    0.0218 H   0  0  0  0  0  0  0  0  0  0  0  0
    6.2508    3.9469    3.6041 H   0  0  0  0  0  0  0  0  0  0  0  0
    6.4083    4.8113    2.0613 H   0  0  0  0  0  0  0  0  0  0  0  0
    8.6243    3.3842    1.9784 H   0  0  0  0  0  0  0  0  0  0  0  0
   10.7850    4.1074    2.5719 H   0  0  0  0  0  0  0  0  0  0  0  0
   12.2077    5.8635    3.6469 H   0  0  0  0  0  0  0  0  0  0  0  0
    7.2193    5.8877    4.3172 H   0  0  0  0  0  0  0  0  0  0  0  0
   10.1035    8.0761    7.0993 H   0  0  0  0  0  0  0  0  0  0  0  0
    9.9460    9.4940    5.9772 H   0  0  0  0  0  0  0  0  0  0  0  0
  1  2  1  0
  1 20  1  0
  1 21  1  0
  1 22  1  0
  2  3  1  0
  2 23  1  0
  2 24  1  0
  3  4  1  0
  4  5  2  0
  4  6  1  0
  6  7  1  0
  6 25  1  0
  6 26  1  0
  7  8  1  0
  7  9  1  0
  7 27  1  1
  8 28  1  0
  9 10  1  0
  9 29  1  0
  9 30  1  0
 10 11  1  0
 10 31  1  0
 11 12  2  0
 11 16  1  0
 12 13  1  0
 12 32  1  0
 13 14  2  0
 13 33  1  0
 14 15  1  0
 14 19  1  0
 15 16  2  0
 15 17  1  0
 16 34  1  0
 17 18  1  0
 18 19  1  0
 18 35  1  0
 18 36  1  0
M  END

