
     RDKit          3D

 36 36  0  0  0  0  0  0  0  0999 V2000
    1.1226   -0.0613    0.2291 C   0  0  0  0  0  0  0  0  0  0  0  0
    2.6319   -0.0995    0.0776 C   0  0  0  0  0  0  0  0  0  0  0  0
    3.2114   -0.2166    1.3639 O   0  0  0  0  0  0  0  0  0  0  0  0
    4.5913   -0.3677    1.4049 C   0  0  1  0  0  0  0  0  0  0  0  0
    5.2563    0.7794    0.9277 O   0  0  0  0  0  0  0  0  0  0  0  0
    6.0119    0.6540   -0.2673 C   0  0  0  0  0  0  0  0  0  0  0  0
    6.5148    2.0286   -0.6654 C   0  0  0  0  0  0  0  0  0  0  0  0
    4.9815   -0.6094    2.8757 C   0  0  1  0  0  0  0  0  0  0  0  0
    4.2362   -1.6669    3.4412 O   0  0  0  0  0  0  0  0  0  0  0  0
    6.5000   -0.8232    3.0310 C   0  0  0  0  0  0  0  0  0  0  0  0
    6.9807   -0.8136    4.4649 C   0  0  0  0  0  0  0  0  0  0  0  0
    6.7022   -1.8771    5.3399 C   0  0  0  0  0  0  0  0  0  0  0  0
    7.1338   -1.8574    6.6670 C   0  0  0  0  0  0  0  0  0  0  0  0
    7.8573   -0.7582    7.1380 C   0  0  0  0  0  0  0  0  0  0  0  0
    8.4074   -0.7284    8.8006 Cl  0  0  0  0  0  0  0  0  0  0  0  0
    8.1471    0.3149    6.2932 C   0  0  0  0  0  0  0  0  0  0  0  0
    7.7065    0.2773    4.9677 C   0  0  0  0  0  0  0  0  0  0  0  0
    0.6377    0.0347   -0.7550 H   0  0  0  0  0  0  0  0  0  0  0  0
    0.8218    0.7952    0.8516 H   0  0  0  0  0  0  0  0  0  0  0  0
    0.7566   -0.9796    0.7136 H   0  0  0  0  0  0  0  0  0  0  0  0
    2.9926    0.8194   -0.4215 H   0  0  0  0  0  0  0  0  0  0  0  0
    2.9404   -0.9589   -0.5553 H   0  0  0  0  0  0  0  0  0  0  0  0
    4.8956   -1.2466    0.7854 H   0  0  0  0  0  0  0  0  0  0  0  0
    5.3909    0.2218   -1.0759 H   0  0  0  0  0  0  0  0  0  0  0  0
    6.8657   -0.0356   -0.1123 H   0  0  0  0  0  0  0  0  0  0  0  0
    5.6719    2.7149   -0.8405 H   0  0  0  0  0  0  0  0  0  0  0  0
    7.1141    1.9675   -1.5874 H   0  0  0  0  0  0  0  0  0  0  0  0
    7.1429    2.4581    0.1303 H   0  0  0  0  0  0  0  0  0  0  0  0
    4.6857    0.2981    3.4263 H   0  0  0  0  0  0  0  0  0  0  0  0
    4.2932   -2.4324    2.8529 H   0  0  0  0  0  0  0  0  0  0  0  0
    7.0188   -0.0330    2.4693 H   0  0  0  0  0  0  0  0  0  0  0  0
    6.7619   -1.7855    2.5520 H   0  0  0  0  0  0  0  0  0  0  0  0
    6.1236   -2.7297    4.9807 H   0  0  0  0  0  0  0  0  0  0  0  0
    6.9121   -2.6888    7.3384 H   0  0  0  0  0  0  0  0  0  0  0  0
    8.7133    1.1679    6.6710 H   0  0  0  0  0  0  0  0  0  0  0  0
    7.9376    1.1199    4.3096 H   0  0  0  0  0  0  0  0  0  0  0  0
  1  2  1  0
  1 18  1  0
  1 19  1  0
  1 20  1  0
  2  3  1  0
  2 21  1  0
  2 22  1  0
  3  4  1  0
  4  5  1  0
  4  8  1  0
  4 23  1  6
  5  6  1  0
  6  7  1  0
  6 24  1  0
  6 25  1  0
  7 26  1  0
  7 27  1  0
  7 28  1  0
  8  9  1  0
  8 10  1  0
  8 29  1  1
  9 30  1  0
 10 11  1  0
 10 31  1  0
 10 32  1  0
 11 12  2  0
 11 17  1  0
 12 13  1  0
 12 33  1  0
 13 14  2  0
 13 34  1  0
 14 15  1  0
 14 16  1  0
 16 17  2  0
 16 35  1  0
 17 36  1  0
M  END

