
     RDKit          3D

 59 62  0  0  0  0  0  0  0  0999 V2000
    5.5460   -1.7299   -0.2139 C   0  0  0  0  0  0  0  0  0  0  0  0
    4.5806   -1.6059    0.9819 C   0  0  1  0  0  0  0  0  0  0  0  0
    4.7537   -2.8322    1.8980 C   0  0  0  0  0  0  0  0  0  0  0  0
    4.9411   -0.3362    1.7785 C   0  0  0  0  0  0  0  0  0  0  0  0
    3.1284   -1.4244    0.4072 C   0  0  1  0  0  0  0  0  0  0  0  0
    2.6740   -2.4619   -0.5911 C   0  0  0  0  0  0  0  0  0  0  0  0
    2.8304   -3.7665   -0.4978 N   0  0  0  0  0  0  0  0  0  0  0  0
    2.2101   -4.3291   -1.5911 C   0  0  0  0  0  0  0  0  0  0  0  0
    2.1882   -5.7837   -1.8170 C   0  0  0  0  0  0  0  0  0  0  0  0
    2.8052   -6.6504   -0.8963 C   0  0  0  0  0  0  0  0  0  0  0  0
    2.7922   -8.0319   -1.0964 C   0  0  0  0  0  0  0  0  0  0  0  0
    2.1631   -8.5787   -2.2192 C   0  0  0  0  0  0  0  0  0  0  0  0
    1.5463   -7.7274   -3.1423 C   0  0  0  0  0  0  0  0  0  0  0  0
    1.5588   -6.3464   -2.9439 C   0  0  0  0  0  0  0  0  0  0  0  0
    1.6564   -3.3198   -2.3586 C   0  0  0  0  0  0  0  0  0  0  0  0
    1.9485   -2.1355   -1.7199 N   0  0  0  0  0  0  0  0  0  0  0  0
    1.5419   -0.8198   -2.1999 C   0  0  0  0  0  0  0  0  0  0  0  0
    2.3037   -0.3204   -3.4182 C   0  0  0  0  0  0  0  0  0  0  0  0
    1.7355    0.6954   -4.2027 C   0  0  0  0  0  0  0  0  0  0  0  0
    2.4214    1.2168   -5.3016 C   0  0  0  0  0  0  0  0  0  0  0  0
    3.6869    0.7245   -5.6370 C   0  0  0  0  0  0  0  0  0  0  0  0
    4.2575   -0.2900   -4.8648 C   0  0  0  0  0  0  0  0  0  0  0  0
    3.5712   -0.8091   -3.7616 C   0  0  0  0  0  0  0  0  0  0  0  0
    2.0833   -1.2110    1.4353 N   0  0  0  0  0  0  0  0  0  0  0  0
    1.4250   -2.3607    2.0706 C   0  0  0  0  0  0  0  0  0  0  0  0
    0.7620   -1.9378    3.3689 C   0  0  0  0  0  0  0  0  0  0  0  0
   -0.1559   -0.8953    3.1220 O   0  0  0  0  0  0  0  0  0  0  0  0
    0.4814    0.2571    2.6317 C   0  0  0  0  0  0  0  0  0  0  0  0
    1.5450    0.0445    1.5501 C   0  0  0  0  0  0  0  0  0  0  0  0
    1.9103    1.0051    0.8834 O   0  0  0  0  0  0  0  0  0  0  0  0
    6.5886   -1.7333    0.1419 H   0  0  0  0  0  0  0  0  0  0  0  0
    5.4370   -0.8810   -0.9092 H   0  0  0  0  0  0  0  0  0  0  0  0
    5.3796   -2.6614   -0.7747 H   0  0  0  0  0  0  0  0  0  0  0  0
    5.8155   -2.9368    2.1754 H   0  0  0  0  0  0  0  0  0  0  0  0
    4.4321   -3.7551    1.3971 H   0  0  0  0  0  0  0  0  0  0  0  0
    4.1907   -2.7204    2.8378 H   0  0  0  0  0  0  0  0  0  0  0  0
    5.9730   -0.4086    2.1579 H   0  0  0  0  0  0  0  0  0  0  0  0
    4.2769   -0.2050    2.6464 H   0  0  0  0  0  0  0  0  0  0  0  0
    4.8644    0.5713    1.1602 H   0  0  0  0  0  0  0  0  0  0  0  0
    3.1687   -0.4624   -0.1172 H   0  0  0  0  0  0  0  0  0  0  0  0
    3.2952   -6.2195   -0.0221 H   0  0  0  0  0  0  0  0  0  0  0  0
    3.2781   -8.6877   -0.3689 H   0  0  0  0  0  0  0  0  0  0  0  0
    2.1534   -9.6605   -2.3753 H   0  0  0  0  0  0  0  0  0  0  0  0
    1.0518   -8.1422   -4.0246 H   0  0  0  0  0  0  0  0  0  0  0  0
    1.0726   -5.6989   -3.6778 H   0  0  0  0  0  0  0  0  0  0  0  0
    1.0963   -3.3346   -3.2896 H   0  0  0  0  0  0  0  0  0  0  0  0
    1.6495   -0.0993   -1.3744 H   0  0  0  0  0  0  0  0  0  0  0  0
    0.4651   -0.8583   -2.4312 H   0  0  0  0  0  0  0  0  0  0  0  0
    0.7446    1.0844   -3.9493 H   0  0  0  0  0  0  0  0  0  0  0  0
    1.9636    2.0077   -5.9013 H   0  0  0  0  0  0  0  0  0  0  0  0
    4.2235    1.1284   -6.4991 H   0  0  0  0  0  0  0  0  0  0  0  0
    5.2442   -0.6846   -5.1205 H   0  0  0  0  0  0  0  0  0  0  0  0
    4.0259   -1.6055   -3.1688 H   0  0  0  0  0  0  0  0  0  0  0  0
    2.1642   -3.1501    2.2504 H   0  0  0  0  0  0  0  0  0  0  0  0
    0.6609   -2.7861    1.3958 H   0  0  0  0  0  0  0  0  0  0  0  0
    1.5263   -1.6249    4.1109 H   0  0  0  0  0  0  0  0  0  0  0  0
    0.1944   -2.7778    3.7960 H   0  0  0  0  0  0  0  0  0  0  0  0
    0.9867    0.8196    3.4462 H   0  0  0  0  0  0  0  0  0  0  0  0
   -0.2858    0.9201    2.2076 H   0  0  0  0  0  0  0  0  0  0  0  0
  2  1  1  6
  1 31  1  0
  1 32  1  0
  1 33  1  0
  2  3  1  0
  2  4  1  0
  2  5  1  0
  3 34  1  0
  3 35  1  0
  3 36  1  0
  4 37  1  0
  4 38  1  0
  4 39  1  0
  5  6  1  0
  5 24  1  0
  5 40  1  6
  6  7  2  0
  6 16  1  0
  7  8  1  0
  8  9  1  0
  8 15  2  0
  9 10  2  0
  9 14  1  0
 10 11  1  0
 10 41  1  0
 11 12  2  0
 11 42  1  0
 12 13  1  0
 12 43  1  0
 13 14  2  0
 13 44  1  0
 14 45  1  0
 15 16  1  0
 15 46  1  0
 16 17  1  0
 17 18  1  0
 17 47  1  0
 17 48  1  0
 18 19  2  0
 18 23  1  0
 19 20  1  0
 19 49  1  0
 20 21  2  0
 20 50  1  0
 21 22  1  0
 21 51  1  0
 22 23  2  0
 22 52  1  0
 23 53  1  0
 24 25  1  0
 24 29  1  0
 25 26  1  0
 25 54  1  0
 25 55  1  0
 26 27  1  0
 26 56  1  0
 26 57  1  0
 27 28  1  0
 28 29  1  0
 28 58  1  0
 28 59  1  0
 29 30  2  0
M  END

