
     RDKit          3D

 49 53  0  0  0  0  0  0  0  0999 V2000
    2.8316    1.4633    0.8896 O   0  0  0  0  0  0  0  0  0  0  0  0
    2.0871    0.5879    0.4742 C   0  0  0  0  0  0  0  0  0  0  0  0
    0.5626    0.7795    0.4574 C   0  0  0  0  0  0  0  0  0  0  0  0
   -0.0178    0.5859    1.7724 N   0  0  0  0  0  0  0  0  0  0  0  0
   -0.7358   -0.5509    2.1115 C   0  0  0  0  0  0  0  0  0  0  0  0
   -0.9348   -1.5314    1.4421 O   0  0  0  0  0  0  0  0  0  0  0  0
   -1.2044   -0.3742    3.3931 O   0  0  0  0  0  0  0  0  0  0  0  0
   -0.7664    0.8458    3.8516 C   0  0  0  0  0  0  0  0  0  0  0  0
   -0.9982    1.4286    5.0855 C   0  0  0  0  0  0  0  0  0  0  0  0
   -0.4195    2.6905    5.3011 C   0  0  0  0  0  0  0  0  0  0  0  0
    0.3589    3.3121    4.3152 C   0  0  0  0  0  0  0  0  0  0  0  0
    0.5903    2.7084    3.0693 C   0  0  0  0  0  0  0  0  0  0  0  0
   -0.0013    1.4669    2.8561 C   0  0  0  0  0  0  0  0  0  0  0  0
    2.5424   -0.6084    0.0337 N   0  0  0  0  0  0  0  0  0  0  0  0
    3.9067   -1.1278    0.0944 C   0  0  0  0  0  0  0  0  0  0  0  0
    3.3413   -2.5317   -0.2733 C   0  0  2  0  0  0  0  0  0  0  0  0
    3.8704   -3.1759   -1.4504 N   0  0  0  0  0  0  0  0  0  0  0  0
    4.0159   -2.6986   -2.7194 C   0  0  0  0  0  0  0  0  0  0  0  0
    4.5675   -3.7574   -3.4111 C   0  0  0  0  0  0  0  0  0  0  0  0
    4.9578   -3.8347   -4.8528 C   0  0  0  0  0  0  0  0  0  0  0  0
    4.6235   -2.6212   -5.4751 O   0  0  0  0  0  0  0  0  0  0  0  0
    4.9612   -2.5621   -6.8450 C   0  0  0  0  0  0  0  0  0  0  0  0
    4.4932   -1.2541   -7.4228 C   0  0  1  0  0  0  0  0  0  0  0  0
    5.3168   -0.0060   -7.2356 C   0  0  0  0  0  0  0  0  0  0  0  0
    5.2236   -0.6488   -8.5956 C   0  0  0  0  0  0  0  0  0  0  0  0
    4.7254   -4.7985   -2.5469 N   0  0  0  0  0  0  0  0  0  0  0  0
    4.3072   -4.4486   -1.3720 N   0  0  0  0  0  0  0  0  0  0  0  0
    1.9304   -1.8793   -0.3841 C   0  0  0  0  0  0  0  0  0  0  0  0
    0.0552    0.0827   -0.2233 H   0  0  0  0  0  0  0  0  0  0  0  0
    0.3675    1.8107    0.1262 H   0  0  0  0  0  0  0  0  0  0  0  0
   -1.5989    0.9256    5.8447 H   0  0  0  0  0  0  0  0  0  0  0  0
   -0.5737    3.1901    6.2601 H   0  0  0  0  0  0  0  0  0  0  0  0
    0.8081    4.2860    4.5227 H   0  0  0  0  0  0  0  0  0  0  0  0
    1.2348    3.1618    2.3158 H   0  0  0  0  0  0  0  0  0  0  0  0
    4.3729   -1.0430    1.0890 H   0  0  0  0  0  0  0  0  0  0  0  0
    4.5876   -0.6905   -0.6545 H   0  0  0  0  0  0  0  0  0  0  0  0
    3.4239   -3.2714    0.5317 H   0  0  0  0  0  0  0  0  0  0  0  0
    3.7372   -1.6977   -3.0332 H   0  0  0  0  0  0  0  0  0  0  0  0
    4.4423   -4.6935   -5.3327 H   0  0  0  0  0  0  0  0  0  0  0  0
    6.0460   -4.0437   -4.9338 H   0  0  0  0  0  0  0  0  0  0  0  0
    4.4952   -3.4114   -7.3881 H   0  0  0  0  0  0  0  0  0  0  0  0
    6.0598   -2.6639   -6.9757 H   0  0  0  0  0  0  0  0  0  0  0  0
    3.4048   -1.1290   -7.4036 H   0  0  0  0  0  0  0  0  0  0  0  0
    6.2589   -0.0968   -6.6864 H   0  0  0  0  0  0  0  0  0  0  0  0
    4.7920    0.9386   -7.0682 H   0  0  0  0  0  0  0  0  0  0  0  0
    6.1053   -1.1724   -8.9785 H   0  0  0  0  0  0  0  0  0  0  0  0
    4.6318   -0.1534   -9.3701 H   0  0  0  0  0  0  0  0  0  0  0  0
    1.1589   -2.2675    0.2980 H   0  0  0  0  0  0  0  0  0  0  0  0
    1.5270   -1.8648   -1.4109 H   0  0  0  0  0  0  0  0  0  0  0  0
  1  2  2  0
  2  3  1  0
  2 14  1  0
  3  4  1  0
  3 29  1  0
  3 30  1  0
  4  5  1  0
  4 13  1  0
  5  6  2  0
  5  7  1  0
  7  8  1  0
  8  9  1  0
  8 13  2  0
  9 10  2  0
  9 31  1  0
 10 11  1  0
 10 32  1  0
 11 12  2  0
 11 33  1  0
 12 13  1  0
 12 34  1  0
 14 15  1  0
 14 28  1  0
 15 16  1  0
 15 35  1  0
 15 36  1  0
 16 17  1  0
 16 28  1  0
 16 37  1  1
 17 18  1  0
 17 27  1  0
 18 19  2  0
 18 38  1  0
 19 20  1  0
 19 26  1  0
 20 21  1  0
 20 39  1  0
 20 40  1  0
 21 22  1  0
 22 23  1  0
 22 41  1  0
 22 42  1  0
 23 24  1  0
 23 25  1  0
 23 43  1  6
 24 25  1  0
 24 44  1  0
 24 45  1  0
 25 46  1  0
 25 47  1  0
 26 27  2  0
 28 48  1  0
 28 49  1  0
M  END

