
     RDKit          3D

 37 38  0  0  0  0  0  0  0  0999 V2000
    3.4447    2.3664   -0.7743 C   0  0  0  0  0  0  0  0  0  0  0  0
    3.5102    0.8903   -0.5996 C   0  0  0  0  0  0  0  0  0  0  0  0
    2.5796   -0.1095   -0.6405 C   0  0  0  0  0  0  0  0  0  0  0  0
    3.2807   -1.3389   -0.3872 C   0  0  0  0  0  0  0  0  0  0  0  0
    4.5943   -0.9995   -0.2164 C   0  0  0  0  0  0  0  0  0  0  0  0
    5.8493   -1.7722    0.0751 C   0  0  1  0  0  0  0  0  0  0  0  0
    6.4301   -1.3881    1.4465 C   0  0  0  0  0  0  0  0  0  0  0  0
    5.5552   -3.2009   -0.0008 N   0  0  0  0  0  0  0  0  0  0  0  0
    6.7161   -4.0674   -0.1603 C   0  0  0  0  0  0  0  0  0  0  0  0
    6.2961   -5.5022   -0.1686 C   0  0  0  0  0  0  0  0  0  0  0  0
    6.7927   -6.6613    0.3617 C   0  0  0  0  0  0  0  0  0  0  0  0
    5.8750   -7.7031   -0.0042 C   0  0  0  0  0  0  0  0  0  0  0  0
    4.8802   -7.1073   -0.7313 C   0  0  0  0  0  0  0  0  0  0  0  0
    3.5811   -7.5484   -1.2913 C   0  0  0  0  0  0  0  0  0  0  0  0
    2.1257   -7.3163   -0.1553 S   0  0  0  0  0  0  0  0  0  0  0  0
    2.2263   -5.5123    0.1251 C   0  0  1  0  0  0  0  0  0  0  0  0
    2.1366   -4.8157   -1.0414 F   0  0  0  0  0  0  0  0  0  0  0  0
    1.1699   -5.1803    0.8949 F   0  0  0  0  0  0  0  0  0  0  0  0
    5.1453   -5.7720   -0.8436 O   0  0  0  0  0  0  0  0  0  0  0  0
    4.7395    0.3505   -0.3427 O   0  0  0  0  0  0  0  0  0  0  0  0
    2.4096    2.6753   -0.9754 H   0  0  0  0  0  0  0  0  0  0  0  0
    4.0749    2.7029   -1.6153 H   0  0  0  0  0  0  0  0  0  0  0  0
    3.7937    2.8965    0.1282 H   0  0  0  0  0  0  0  0  0  0  0  0
    1.5143    0.0116   -0.8267 H   0  0  0  0  0  0  0  0  0  0  0  0
    2.8532   -2.3378   -0.3502 H   0  0  0  0  0  0  0  0  0  0  0  0
    6.5975   -1.4707   -0.6959 H   0  0  0  0  0  0  0  0  0  0  0  0
    5.7312   -1.6842    2.2435 H   0  0  0  0  0  0  0  0  0  0  0  0
    6.5929   -0.3017    1.4978 H   0  0  0  0  0  0  0  0  0  0  0  0
    7.3985   -1.8806    1.6273 H   0  0  0  0  0  0  0  0  0  0  0  0
    4.9160   -3.3755   -0.7750 H   0  0  0  0  0  0  0  0  0  0  0  0
    7.4138   -3.9274    0.6794 H   0  0  0  0  0  0  0  0  0  0  0  0
    7.2980   -3.8346   -1.0841 H   0  0  0  0  0  0  0  0  0  0  0  0
    7.6998   -6.7614    0.9540 H   0  0  0  0  0  0  0  0  0  0  0  0
    5.9345   -8.7567    0.2612 H   0  0  0  0  0  0  0  0  0  0  0  0
    3.5860   -8.6301   -1.4827 H   0  0  0  0  0  0  0  0  0  0  0  0
    3.3629   -7.0278   -2.2347 H   0  0  0  0  0  0  0  0  0  0  0  0
    3.1577   -5.2026    0.6236 H   0  0  0  0  0  0  0  0  0  0  0  0
  1  2  1  0
  1 21  1  0
  1 22  1  0
  1 23  1  0
  2  3  2  0
  2 20  1  0
  3  4  1  0
  3 24  1  0
  4  5  2  0
  4 25  1  0
  5  6  1  0
  5 20  1  0
  6  7  1  0
  6  8  1  0
  6 26  1  6
  7 27  1  0
  7 28  1  0
  7 29  1  0
  8  9  1  0
  8 30  1  0
  9 10  1  0
  9 31  1  0
  9 32  1  0
 10 11  2  0
 10 19  1  0
 11 12  1  0
 11 33  1  0
 12 13  2  0
 12 34  1  0
 13 14  1  0
 13 19  1  0
 14 15  1  0
 14 35  1  0
 14 36  1  0
 15 16  1  0
 16 17  1  0
 16 18  1  0
 16 37  1  1
M  END

