
     RDKit          3D

 34 35  0  0  0  0  0  0  0  0999 V2000
    0.9134   -0.0313    0.2121 C   0  0  0  0  0  0  0  0  0  0  0  0
    2.4330   -0.1476    0.0289 C   0  0  1  0  0  0  0  0  0  0  0  0
    2.8742   -1.5507   -0.4351 C   0  0  0  0  0  0  0  0  0  0  0  0
    2.5483   -1.8025   -1.9123 C   0  0  2  0  0  0  0  0  0  0  0  0
    3.0614   -3.1582   -2.3952 C   0  0  0  0  0  0  0  0  0  0  0  0
    3.8345   -3.8473   -1.7887 O   0  0  0  0  0  0  0  0  0  0  0  0
    2.6056   -3.5419   -3.6101 O   0  0  0  0  0  0  0  0  0  0  0  0
    3.1443   -0.6648   -2.7717 C   0  0  0  0  0  0  0  0  0  0  0  0
    2.6547    0.6355   -2.3266 N   0  0  0  0  0  0  0  0  0  0  0  0
    1.6266    1.1921   -3.0525 C   0  0  0  0  0  0  0  0  0  0  0  0
    1.0688    0.5944   -3.9653 O   0  0  0  0  0  0  0  0  0  0  0  0
    1.2226    2.6003   -2.7493 C   0  0  0  0  0  0  0  0  0  0  0  0
    1.9750    3.6980   -2.3642 C   0  0  0  0  0  0  0  0  0  0  0  0
    1.2201    4.8960   -2.3172 C   0  0  0  0  0  0  0  0  0  0  0  0
   -0.0894    4.6668   -2.6729 C   0  0  0  0  0  0  0  0  0  0  0  0
   -1.1422    5.6573   -2.7238 N   0  0  0  0  0  0  0  0  0  0  0  0
   -0.8474    6.8026   -2.4220 O   0  0  0  0  0  0  0  0  0  0  0  0
   -2.2497    5.2664   -3.0659 O   0  0  0  0  0  0  0  0  0  0  0  0
   -0.4255    3.0252   -3.0963 S   0  0  0  0  0  0  0  0  0  0  0  0
    2.9834    0.9341   -0.9291 C   0  0  0  0  0  0  0  0  0  0  0  0
    0.5471   -0.7900    0.9214 H   0  0  0  0  0  0  0  0  0  0  0  0
    0.3626   -0.1723   -0.7319 H   0  0  0  0  0  0  0  0  0  0  0  0
    0.6349    0.9581    0.6092 H   0  0  0  0  0  0  0  0  0  0  0  0
    2.9030    0.0418    1.0098 H   0  0  0  0  0  0  0  0  0  0  0  0
    2.4099   -2.3263    0.1938 H   0  0  0  0  0  0  0  0  0  0  0  0
    3.9627   -1.6678   -0.3043 H   0  0  0  0  0  0  0  0  0  0  0  0
    1.4549   -1.7888   -2.0705 H   0  0  0  0  0  0  0  0  0  0  0  0
    1.9620   -2.9056   -3.9562 H   0  0  0  0  0  0  0  0  0  0  0  0
    2.8910   -0.7788   -3.8318 H   0  0  0  0  0  0  0  0  0  0  0  0
    4.2438   -0.6755   -2.6710 H   0  0  0  0  0  0  0  0  0  0  0  0
    3.0430    3.6483   -2.1505 H   0  0  0  0  0  0  0  0  0  0  0  0
    1.5939    5.8824   -2.0461 H   0  0  0  0  0  0  0  0  0  0  0  0
    2.5812    1.9153   -0.6542 H   0  0  0  0  0  0  0  0  0  0  0  0
    4.0828    0.9863   -0.8382 H   0  0  0  0  0  0  0  0  0  0  0  0
  1  2  1  0
  1 21  1  0
  1 22  1  0
  1 23  1  0
  2  3  1  0
  2 20  1  0
  2 24  1  1
  3  4  1  0
  3 25  1  0
  3 26  1  0
  4  5  1  0
  4  8  1  0
  4 27  1  1
  5  6  2  0
  5  7  1  0
  7 28  1  0
  8  9  1  0
  8 29  1  0
  8 30  1  0
  9 10  1  0
  9 20  1  0
 10 11  2  0
 10 12  1  0
 12 13  2  0
 12 19  1  0
 13 14  1  0
 13 31  1  0
 14 15  2  0
 14 32  1  0
 15 16  1  0
 15 19  1  0
 16 17  2  0
 16 18  1  0
 20 33  1  0
 20 34  1  0
M  CHG  2  16   1  18  -1
M  END

