
     RDKit          3D

 40 41  0  0  0  0  0  0  0  0999 V2000
    1.0162    0.1323    0.5187 C   0  0  0  0  0  0  0  0  0  0  0  0
    2.5102   -0.0233    0.2352 C   0  0  0  0  0  0  0  0  0  0  0  0
    2.9301   -1.4703   -0.0210 C   0  0  0  0  0  0  0  0  0  0  0  0
    4.3544   -1.5676   -0.3061 N   0  0  0  0  0  0  0  0  0  0  0  0
    4.8509   -2.9200   -0.5248 C   0  0  1  0  0  0  0  0  0  0  0  0
    4.4255   -3.4381   -1.8922 C   0  0  0  0  0  0  0  0  0  0  0  0
    4.3554   -2.5889   -3.0067 C   0  0  0  0  0  0  0  0  0  0  0  0
    3.9787   -3.0534   -4.2689 C   0  0  0  0  0  0  0  0  0  0  0  0
    3.6547   -4.4007   -4.4147 C   0  0  0  0  0  0  0  0  0  0  0  0
    3.2856   -4.8647   -5.6167 F   0  0  0  0  0  0  0  0  0  0  0  0
    3.6990   -5.2838   -3.3390 C   0  0  0  0  0  0  0  0  0  0  0  0
    4.0867   -4.7796   -2.0996 C   0  0  0  0  0  0  0  0  0  0  0  0
    4.1397   -5.6376   -1.0645 F   0  0  0  0  0  0  0  0  0  0  0  0
    6.3933   -2.9075   -0.3557 C   0  0  1  0  0  0  0  0  0  0  0  0
    6.6127   -2.3409    0.9316 O   0  0  0  0  0  0  0  0  0  0  0  0
    7.9206   -1.9186    1.2295 C   0  0  0  0  0  0  0  0  0  0  0  0
    7.0304   -4.2766   -0.4877 C   0  0  1  0  0  0  0  0  0  0  0  0
    7.4076   -4.8368   -1.8373 C   0  0  0  0  0  0  0  0  0  0  0  0
    8.4853   -4.4261   -0.8754 C   0  0  0  0  0  0  0  0  0  0  0  0
    0.7492    1.1852    0.7011 H   0  0  0  0  0  0  0  0  0  0  0  0
    0.7108   -0.4462    1.4067 H   0  0  0  0  0  0  0  0  0  0  0  0
    0.4076   -0.2220   -0.3302 H   0  0  0  0  0  0  0  0  0  0  0  0
    3.0918    0.3733    1.0883 H   0  0  0  0  0  0  0  0  0  0  0  0
    2.8006    0.5852   -0.6383 H   0  0  0  0  0  0  0  0  0  0  0  0
    2.3665   -1.8639   -0.8855 H   0  0  0  0  0  0  0  0  0  0  0  0
    2.6297   -2.1008    0.8482 H   0  0  0  0  0  0  0  0  0  0  0  0
    4.8870   -1.1801    0.4719 H   0  0  0  0  0  0  0  0  0  0  0  0
    4.4659   -3.6271    0.2398 H   0  0  0  0  0  0  0  0  0  0  0  0
    4.5890   -1.5335   -2.8525 H   0  0  0  0  0  0  0  0  0  0  0  0
    3.9239   -2.3902   -5.1339 H   0  0  0  0  0  0  0  0  0  0  0  0
    3.4411   -6.3364   -3.4589 H   0  0  0  0  0  0  0  0  0  0  0  0
    6.8171   -2.2312   -1.1285 H   0  0  0  0  0  0  0  0  0  0  0  0
    7.8727   -1.3483    2.1694 H   0  0  0  0  0  0  0  0  0  0  0  0
    8.3306   -1.2583    0.4391 H   0  0  0  0  0  0  0  0  0  0  0  0
    8.6184   -2.7631    1.3696 H   0  0  0  0  0  0  0  0  0  0  0  0
    6.6511   -4.9976    0.2444 H   0  0  0  0  0  0  0  0  0  0  0  0
    7.2417   -4.2082   -2.7165 H   0  0  0  0  0  0  0  0  0  0  0  0
    7.2324   -5.9013   -2.0130 H   0  0  0  0  0  0  0  0  0  0  0  0
    9.0523   -3.5199   -1.1092 H   0  0  0  0  0  0  0  0  0  0  0  0
    9.0722   -5.2024   -0.3764 H   0  0  0  0  0  0  0  0  0  0  0  0
  1  2  1  0
  1 20  1  0
  1 21  1  0
  1 22  1  0
  2  3  1  0
  2 23  1  0
  2 24  1  0
  3  4  1  0
  3 25  1  0
  3 26  1  0
  4  5  1  0
  4 27  1  0
  5  6  1  0
  5 14  1  0
  5 28  1  1
  6  7  2  0
  6 12  1  0
  7  8  1  0
  7 29  1  0
  8  9  2  0
  8 30  1  0
  9 10  1  0
  9 11  1  0
 11 12  2  0
 11 31  1  0
 12 13  1  0
 14 15  1  0
 14 17  1  0
 14 32  1  6
 15 16  1  0
 16 33  1  0
 16 34  1  0
 16 35  1  0
 17 18  1  0
 17 19  1  0
 17 36  1  1
 18 19  1  0
 18 37  1  0
 18 38  1  0
 19 39  1  0
 19 40  1  0
M  END

