
     RDKit          3D

182188  0  0  0  0  0  0  0  0999 V2000
    0.4805    2.2726    6.7844 C   0  0  0  0  0  0  0  0  0  0  0  0
    2.0055    2.3838    6.7527 C   0  0  0  0  0  0  0  0  0  0  0  0
    2.7120    1.0555    6.4642 C   0  0  0  0  0  0  0  0  0  0  0  0
    4.2395    1.1585    6.4302 C   0  0  0  0  0  0  0  0  0  0  0  0
    4.9457   -0.1697    6.1425 C   0  0  0  0  0  0  0  0  0  0  0  0
    6.4733   -0.0648    6.1073 C   0  0  0  0  0  0  0  0  0  0  0  0
    7.1794   -1.3932    5.8208 C   0  0  0  0  0  0  0  0  0  0  0  0
    8.7069   -1.2850    5.7833 C   0  0  0  0  0  0  0  0  0  0  0  0
    9.4064   -2.6171    5.4993 C   0  0  0  0  0  0  0  0  0  0  0  0
   10.9212   -2.4909    5.4574 C   0  0  0  0  0  0  0  0  0  0  0  0
   11.4719   -3.7768    5.2126 O   0  0  0  0  0  0  0  0  0  0  0  0
   12.8160   -3.9380    5.1676 C   0  0  0  0  0  0  0  0  0  0  0  0
   13.7489   -2.8987    5.2985 C   0  0  0  0  0  0  0  0  0  0  0  0
   15.1192   -3.1616    5.2605 C   0  0  0  0  0  0  0  0  0  0  0  0
   15.5990   -4.4740    5.0913 C   0  0  0  0  0  0  0  0  0  0  0  0
   16.9958   -4.7521    5.0555 C   0  0  0  0  0  0  0  0  0  0  0  0
   18.1898   -5.0060    5.0183 C   0  0  0  0  0  0  0  0  0  0  0  0
   19.5852   -5.2627    4.9697 C   0  0  0  0  0  0  0  0  0  0  0  0
   20.5168   -4.2243    5.0116 C   0  0  0  0  0  0  0  0  0  0  0  0
   21.9014   -4.4631    4.9565 C   0  0  0  0  0  0  0  0  0  0  0  0
   22.4269   -5.7526    4.8552 C   0  0  0  0  0  0  0  0  0  0  0  0
   23.8279   -5.9723    4.7963 C   0  0  0  0  0  0  0  0  0  0  0  0
   25.0401   -6.1147    4.7463 C   0  0  0  0  0  0  0  0  0  0  0  0
   26.4519   -6.2937    4.6839 C   0  0  0  0  0  0  0  0  0  0  0  0
   27.3241   -5.1940    4.7028 C   0  0  0  0  0  0  0  0  0  0  0  0
   28.7082   -5.3838    4.6377 C   0  0  0  0  0  0  0  0  0  0  0  0
   29.2530   -6.6687    4.5528 C   0  0  0  0  0  0  0  0  0  0  0  0
   30.5726   -6.9503    4.4877 O   0  0  0  0  0  0  0  0  0  0  0  0
   31.5191   -5.8944    4.4891 C   0  0  0  0  0  0  0  0  0  0  0  0
   32.9101   -6.5020    4.3979 C   0  0  0  0  0  0  0  0  0  0  0  0
   34.0215   -5.4495    4.3778 C   0  0  0  0  0  0  0  0  0  0  0  0
   35.4281   -6.0492    4.2867 C   0  0  0  0  0  0  0  0  0  0  0  0
   36.5461   -5.0031    4.2591 C   0  0  0  0  0  0  0  0  0  0  0  0
   37.9527   -5.6020    4.1680 C   0  0  0  0  0  0  0  0  0  0  0  0
   39.0716   -4.5566    4.1359 C   0  0  0  0  0  0  0  0  0  0  0  0
   40.4783   -5.1550    4.0446 C   0  0  0  0  0  0  0  0  0  0  0  0
   41.5979   -4.1100    4.0103 C   0  0  0  0  0  0  0  0  0  0  0  0
   42.9992   -4.7158    3.9192 C   0  0  0  0  0  0  0  0  0  0  0  0
   28.3782   -7.7950    4.5318 C   0  0  0  0  0  0  0  0  0  0  0  0
   28.9852   -9.0010    4.4433 O   0  0  0  0  0  0  0  0  0  0  0  0
   28.2072  -10.1868    4.4664 C   0  0  0  0  0  0  0  0  0  0  0  0
   29.1507  -11.3776    4.3873 C   0  0  0  0  0  0  0  0  0  0  0  0
   30.1241  -11.4804    5.5650 C   0  0  0  0  0  0  0  0  0  0  0  0
   31.0900  -12.6633    5.4572 C   0  0  0  0  0  0  0  0  0  0  0  0
   32.0684  -12.7705    6.6305 C   0  0  0  0  0  0  0  0  0  0  0  0
   33.0431  -13.9467    6.5203 C   0  0  0  0  0  0  0  0  0  0  0  0
   34.0221  -14.0548    7.6932 C   0  0  0  0  0  0  0  0  0  0  0  0
   34.9974  -15.2302    7.5821 C   0  0  0  0  0  0  0  0  0  0  0  0
   35.9773  -15.3392    8.7545 C   0  0  0  0  0  0  0  0  0  0  0  0
   36.9476  -16.5153    8.6351 C   0  0  0  0  0  0  0  0  0  0  0  0
   27.0024   -7.5986    4.5983 C   0  0  0  0  0  0  0  0  0  0  0  0
   21.4993   -6.8587    4.8106 C   0  0  0  0  0  0  0  0  0  0  0  0
   21.9635   -8.1158    4.7117 N   0  0  0  0  0  0  0  0  0  0  0  0
   21.1019   -9.1217    4.6753 C   0  0  0  0  0  0  0  0  0  0  0  0
   21.6008  -10.4953    4.5630 C   0  0  0  0  0  0  0  0  0  0  0  0
   22.9886  -10.7316    4.4888 C   0  0  0  0  0  0  0  0  0  0  0  0
   23.4846  -12.0223    4.3798 C   0  0  0  0  0  0  0  0  0  0  0  0
   22.5921  -13.1056    4.3432 C   0  0  0  0  0  0  0  0  0  0  0  0
   21.2223  -12.8861    4.4160 C   0  0  0  0  0  0  0  0  0  0  0  0
   20.6877  -11.5831    4.5275 C   0  0  0  0  0  0  0  0  0  0  0  0
   19.2366  -11.3332    4.6071 C   0  0  0  0  0  0  0  0  0  0  0  0
   18.2894  -12.3810    4.5834 C   0  0  0  0  0  0  0  0  0  0  0  0
   16.9254  -12.1285    4.6615 C   0  0  0  0  0  0  0  0  0  0  0  0
   16.4547  -10.8100    4.7669 C   0  0  0  0  0  0  0  0  0  0  0  0
   17.3618   -9.7608    4.7916 C   0  0  0  0  0  0  0  0  0  0  0  0
   18.7484  -10.0033    4.7130 C   0  0  0  0  0  0  0  0  0  0  0  0
   19.6865   -8.8777    4.7440 C   0  0  0  0  0  0  0  0  0  0  0  0
   19.2186   -7.6418    4.8364 N   0  0  0  0  0  0  0  0  0  0  0  0
   20.0834   -6.6144    4.8709 C   0  0  0  0  0  0  0  0  0  0  0  0
   14.6527   -5.5158    4.9513 C   0  0  0  0  0  0  0  0  0  0  0  0
   13.2857   -5.2664    4.9849 C   0  0  0  0  0  0  0  0  0  0  0  0
   12.4163   -6.3151    4.9053 O   0  0  0  0  0  0  0  0  0  0  0  0
   11.6310   -6.4305    3.7171 C   0  0  0  0  0  0  0  0  0  0  0  0
   10.7314   -7.6466    3.8596 C   0  0  0  0  0  0  0  0  0  0  0  0
    9.8508   -7.8895    2.6315 C   0  0  0  0  0  0  0  0  0  0  0  0
    8.9315   -9.1070    2.7688 C   0  0  0  0  0  0  0  0  0  0  0  0
    8.0488   -9.3579    1.5429 C   0  0  0  0  0  0  0  0  0  0  0  0
    7.1273  -10.5736    1.6801 C   0  0  0  0  0  0  0  0  0  0  0  0
    6.2452  -10.8256    0.4537 C   0  0  0  0  0  0  0  0  0  0  0  0
    5.3222  -12.0399    0.5907 C   0  0  0  0  0  0  0  0  0  0  0  0
    4.4402  -12.2926   -0.6361 C   0  0  0  0  0  0  0  0  0  0  0  0
    3.5213  -13.5065   -0.4908 C   0  0  0  0  0  0  0  0  0  0  0  0
    0.0069    3.2450    6.9941 H   0  0  0  0  0  0  0  0  0  0  0  0
    0.1461    1.5655    7.5622 H   0  0  0  0  0  0  0  0  0  0  0  0
    0.0846    1.9109    5.8205 H   0  0  0  0  0  0  0  0  0  0  0  0
    2.3664    2.7841    7.7178 H   0  0  0  0  0  0  0  0  0  0  0  0
    2.3054    3.1267    5.9909 H   0  0  0  0  0  0  0  0  0  0  0  0
    2.3515    0.6538    5.4986 H   0  0  0  0  0  0  0  0  0  0  0  0
    2.4131    0.3114    7.2263 H   0  0  0  0  0  0  0  0  0  0  0  0
    4.5994    1.5608    7.3956 H   0  0  0  0  0  0  0  0  0  0  0  0
    4.5379    1.9024    5.6679 H   0  0  0  0  0  0  0  0  0  0  0  0
    4.5858   -0.5728    5.1775 H   0  0  0  0  0  0  0  0  0  0  0  0
    4.6489   -0.9135    6.9053 H   0  0  0  0  0  0  0  0  0  0  0  0
    6.8334    0.3388    7.0720 H   0  0  0  0  0  0  0  0  0  0  0  0
    6.7703    0.6782    5.3438 H   0  0  0  0  0  0  0  0  0  0  0  0
    6.8196   -1.7983    4.8569 H   0  0  0  0  0  0  0  0  0  0  0  0
    6.8861   -2.1361    6.5853 H   0  0  0  0  0  0  0  0  0  0  0  0
    9.0658   -0.8783    6.7470 H   0  0  0  0  0  0  0  0  0  0  0  0
    8.9994   -0.5432    5.0169 H   0  0  0  0  0  0  0  0  0  0  0  0
    9.0592   -3.0289    4.5358 H   0  0  0  0  0  0  0  0  0  0  0  0
    9.1387   -3.3604    6.2696 H   0  0  0  0  0  0  0  0  0  0  0  0
   11.3049   -2.0950    6.4169 H   0  0  0  0  0  0  0  0  0  0  0  0
   11.2315   -1.7868    4.6618 H   0  0  0  0  0  0  0  0  0  0  0  0
   13.4114   -1.8720    5.4392 H   0  0  0  0  0  0  0  0  0  0  0  0
   15.8300   -2.3401    5.3675 H   0  0  0  0  0  0  0  0  0  0  0  0
   20.1555   -3.1970    5.0876 H   0  0  0  0  0  0  0  0  0  0  0  0
   22.5902   -3.6170    4.9920 H   0  0  0  0  0  0  0  0  0  0  0  0
   26.9170   -4.1837    4.7685 H   0  0  0  0  0  0  0  0  0  0  0  0
   29.3635   -4.5132    4.6551 H   0  0  0  0  0  0  0  0  0  0  0  0
   31.4164   -5.2926    5.4128 H   0  0  0  0  0  0  0  0  0  0  0  0
   31.3332   -5.2173    3.6331 H   0  0  0  0  0  0  0  0  0  0  0  0
   32.9591   -7.1258    3.4888 H   0  0  0  0  0  0  0  0  0  0  0  0
   33.0495   -7.1875    5.2515 H   0  0  0  0  0  0  0  0  0  0  0  0
   33.9528   -4.8214    5.2856 H   0  0  0  0  0  0  0  0  0  0  0  0
   33.8642   -4.7627    3.5253 H   0  0  0  0  0  0  0  0  0  0  0  0
   35.4958   -6.6807    3.3816 H   0  0  0  0  0  0  0  0  0  0  0  0
   35.5877   -6.7332    5.1407 H   0  0  0  0  0  0  0  0  0  0  0  0
   36.4768   -4.3707    5.1639 H   0  0  0  0  0  0  0  0  0  0  0  0
   36.3848   -4.3195    3.4047 H   0  0  0  0  0  0  0  0  0  0  0  0
   38.0206   -6.2366    3.2647 H   0  0  0  0  0  0  0  0  0  0  0  0
   38.1147   -6.2837    5.0237 H   0  0  0  0  0  0  0  0  0  0  0  0
   39.0034   -3.9217    5.0390 H   0  0  0  0  0  0  0  0  0  0  0  0
   38.9091   -3.8752    3.2799 H   0  0  0  0  0  0  0  0  0  0  0  0
   40.5466   -5.7910    3.1421 H   0  0  0  0  0  0  0  0  0  0  0  0
   40.6419   -5.8355    4.9013 H   0  0  0  0  0  0  0  0  0  0  0  0
   41.5285   -3.4748    4.9124 H   0  0  0  0  0  0  0  0  0  0  0  0
   41.4333   -3.4306    3.1540 H   0  0  0  0  0  0  0  0  0  0  0  0
   43.2097   -5.3710    4.7813 H   0  0  0  0  0  0  0  0  0  0  0  0
   43.7777   -3.9365    3.8966 H   0  0  0  0  0  0  0  0  0  0  0  0
   43.1136   -5.3265    3.0077 H   0  0  0  0  0  0  0  0  0  0  0  0
   27.5021  -10.1934    3.6137 H   0  0  0  0  0  0  0  0  0  0  0  0
   27.6070  -10.2246    5.3964 H   0  0  0  0  0  0  0  0  0  0  0  0
   29.7146  -11.3134    3.4402 H   0  0  0  0  0  0  0  0  0  0  0  0
   28.5339  -12.2918    4.3219 H   0  0  0  0  0  0  0  0  0  0  0  0
   29.5491  -11.5600    6.5067 H   0  0  0  0  0  0  0  0  0  0  0  0
   30.6937  -10.5385    5.6343 H   0  0  0  0  0  0  0  0  0  0  0  0
   31.6608  -12.5815    4.5134 H   0  0  0  0  0  0  0  0  0  0  0  0
   30.5134  -13.6042    5.3761 H   0  0  0  0  0  0  0  0  0  0  0  0
   31.4983  -12.8563    7.5744 H   0  0  0  0  0  0  0  0  0  0  0  0
   32.6406  -11.8278    6.7130 H   0  0  0  0  0  0  0  0  0  0  0  0
   33.6131  -13.8602    5.5764 H   0  0  0  0  0  0  0  0  0  0  0  0
   32.4696  -14.8889    6.4364 H   0  0  0  0  0  0  0  0  0  0  0  0
   33.4521  -14.1419    8.6370 H   0  0  0  0  0  0  0  0  0  0  0  0
   34.5950  -13.1124    7.7774 H   0  0  0  0  0  0  0  0  0  0  0  0
   35.5677  -15.1433    6.6381 H   0  0  0  0  0  0  0  0  0  0  0  0
   34.4247  -16.1730    7.4979 H   0  0  0  0  0  0  0  0  0  0  0  0
   35.4064  -15.4261    9.6971 H   0  0  0  0  0  0  0  0  0  0  0  0
   36.5487  -14.3966    8.8381 H   0  0  0  0  0  0  0  0  0  0  0  0
   36.4087  -17.4766    8.5880 H   0  0  0  0  0  0  0  0  0  0  0  0
   37.6362  -16.5625    9.4940 H   0  0  0  0  0  0  0  0  0  0  0  0
   37.5608  -16.4382    7.7214 H   0  0  0  0  0  0  0  0  0  0  0  0
   26.3213   -8.4477    4.5832 H   0  0  0  0  0  0  0  0  0  0  0  0
   23.6511   -9.8656    4.5196 H   0  0  0  0  0  0  0  0  0  0  0  0
   24.5621  -12.1956    4.3222 H   0  0  0  0  0  0  0  0  0  0  0  0
   22.9715  -14.1270    4.2570 H   0  0  0  0  0  0  0  0  0  0  0  0
   20.5557  -13.7479    4.3847 H   0  0  0  0  0  0  0  0  0  0  0  0
   18.6226  -13.4157    4.5037 H   0  0  0  0  0  0  0  0  0  0  0  0
   16.2200  -12.9631    4.6416 H   0  0  0  0  0  0  0  0  0  0  0  0
   15.3820  -10.6112    4.8307 H   0  0  0  0  0  0  0  0  0  0  0  0
   17.0317   -8.7246    4.8740 H   0  0  0  0  0  0  0  0  0  0  0  0
   14.9825   -6.5474    4.8219 H   0  0  0  0  0  0  0  0  0  0  0  0
   12.3026   -6.5403    2.8433 H   0  0  0  0  0  0  0  0  0  0  0  0
   11.0296   -5.5177    3.5677 H   0  0  0  0  0  0  0  0  0  0  0  0
   10.1038   -7.5095    4.7573 H   0  0  0  0  0  0  0  0  0  0  0  0
   11.3631   -8.5305    4.0559 H   0  0  0  0  0  0  0  0  0  0  0  0
   10.4900   -8.0165    1.7379 H   0  0  0  0  0  0  0  0  0  0  0  0
    9.2364   -6.9912    2.4347 H   0  0  0  0  0  0  0  0  0  0  0  0
    8.2909   -8.9801    3.6612 H   0  0  0  0  0  0  0  0  0  0  0  0
    9.5449  -10.0053    2.9677 H   0  0  0  0  0  0  0  0  0  0  0  0
    8.6907   -9.4858    0.6513 H   0  0  0  0  0  0  0  0  0  0  0  0
    7.4376   -8.4579    1.3431 H   0  0  0  0  0  0  0  0  0  0  0  0
    6.4849  -10.4452    2.5713 H   0  0  0  0  0  0  0  0  0  0  0  0
    7.7384  -11.4733    1.8809 H   0  0  0  0  0  0  0  0  0  0  0  0
    6.8880  -10.9550   -0.4371 H   0  0  0  0  0  0  0  0  0  0  0  0
    5.6352   -9.9251    0.2523 H   0  0  0  0  0  0  0  0  0  0  0  0
    4.6786  -11.9107    1.4812 H   0  0  0  0  0  0  0  0  0  0  0  0
    5.9317  -12.9409    0.7924 H   0  0  0  0  0  0  0  0  0  0  0  0
    5.0843  -12.4218   -1.5251 H   0  0  0  0  0  0  0  0  0  0  0  0
    3.8322  -11.3915   -0.8370 H   0  0  0  0  0  0  0  0  0  0  0  0
    4.1006  -14.4308   -0.3270 H   0  0  0  0  0  0  0  0  0  0  0  0
    2.9027  -13.6574   -1.3901 H   0  0  0  0  0  0  0  0  0  0  0  0
    2.8377  -13.3916    0.3673 H   0  0  0  0  0  0  0  0  0  0  0  0
  1  2  1  0
  1 83  1  0
  1 84  1  0
  1 85  1  0
  2  3  1  0
  2 86  1  0
  2 87  1  0
  3  4  1  0
  3 88  1  0
  3 89  1  0
  4  5  1  0
  4 90  1  0
  4 91  1  0
  5  6  1  0
  5 92  1  0
  5 93  1  0
  6  7  1  0
  6 94  1  0
  6 95  1  0
  7  8  1  0
  7 96  1  0
  7 97  1  0
  8  9  1  0
  8 98  1  0
  8 99  1  0
  9 10  1  0
  9100  1  0
  9101  1  0
 10 11  1  0
 10102  1  0
 10103  1  0
 11 12  1  0
 12 13  2  0
 12 71  1  0
 13 14  1  0
 13104  1  0
 14 15  2  0
 14105  1  0
 15 16  1  0
 15 70  1  0
 16 17  3  0
 17 18  1  0
 18 19  2  0
 18 69  1  0
 19 20  1  0
 19106  1  0
 20 21  2  0
 20107  1  0
 21 22  1  0
 21 52  1  0
 22 23  3  0
 23 24  1  0
 24 25  2  0
 24 51  1  0
 25 26  1  0
 25108  1  0
 26 27  2  0
 26109  1  0
 27 28  1  0
 27 39  1  0
 28 29  1  0
 29 30  1  0
 29110  1  0
 29111  1  0
 30 31  1  0
 30112  1  0
 30113  1  0
 31 32  1  0
 31114  1  0
 31115  1  0
 32 33  1  0
 32116  1  0
 32117  1  0
 33 34  1  0
 33118  1  0
 33119  1  0
 34 35  1  0
 34120  1  0
 34121  1  0
 35 36  1  0
 35122  1  0
 35123  1  0
 36 37  1  0
 36124  1  0
 36125  1  0
 37 38  1  0
 37126  1  0
 37127  1  0
 38128  1  0
 38129  1  0
 38130  1  0
 39 40  1  0
 39 51  2  0
 40 41  1  0
 41 42  1  0
 41131  1  0
 41132  1  0
 42 43  1  0
 42133  1  0
 42134  1  0
 43 44  1  0
 43135  1  0
 43136  1  0
 44 45  1  0
 44137  1  0
 44138  1  0
 45 46  1  0
 45139  1  0
 45140  1  0
 46 47  1  0
 46141  1  0
 46142  1  0
 47 48  1  0
 47143  1  0
 47144  1  0
 48 49  1  0
 48145  1  0
 48146  1  0
 49 50  1  0
 49147  1  0
 49148  1  0
 50149  1  0
 50150  1  0
 50151  1  0
 51152  1  0
 52 53  1  0
 52 69  2  0
 53 54  2  0
 54 55  1  0
 54 67  1  0
 55 56  2  0
 55 60  1  0
 56 57  1  0
 56153  1  0
 57 58  2  0
 57154  1  0
 58 59  1  0
 58155  1  0
 59 60  2  0
 59156  1  0
 60 61  1  0
 61 62  1  0
 61 66  2  0
 62 63  2  0
 62157  1  0
 63 64  1  0
 63158  1  0
 64 65  2  0
 64159  1  0
 65 66  1  0
 65160  1  0
 66 67  1  0
 67 68  2  0
 68 69  1  0
 70 71  2  0
 70161  1  0
 71 72  1  0
 72 73  1  0
 73 74  1  0
 73162  1  0
 73163  1  0
 74 75  1  0
 74164  1  0
 74165  1  0
 75 76  1  0
 75166  1  0
 75167  1  0
 76 77  1  0
 76168  1  0
 76169  1  0
 77 78  1  0
 77170  1  0
 77171  1  0
 78 79  1  0
 78172  1  0
 78173  1  0
 79 80  1  0
 79174  1  0
 79175  1  0
 80 81  1  0
 80176  1  0
 80177  1  0
 81 82  1  0
 81178  1  0
 81179  1  0
 82180  1  0
 82181  1  0
 82182  1  0
M  END

