
     RDKit          3D

 62 64  0  0  0  0  0  0  0  0999 V2000
    5.4261   -4.1607    1.0057 C   0  0  0  0  0  0  0  0  0  0  0  0
    4.4976   -3.8241   -0.1598 C   0  0  0  0  0  0  0  0  0  0  0  0
    5.1228   -3.9247   -1.4725 N   0  0  0  0  0  0  0  0  0  0  0  0
    5.6218   -5.2450   -1.8550 C   0  0  0  0  0  0  0  0  0  0  0  0
    4.5691   -6.3446   -2.0663 C   0  0  0  0  0  0  0  0  0  0  0  0
    4.3914   -3.2157   -2.5165 C   0  0  0  0  0  0  0  0  0  0  0  0
    4.7476   -1.7200   -2.5963 C   0  0  0  0  0  0  0  0  0  0  0  0
    6.2243   -1.4547   -2.9207 C   0  0  0  0  0  0  0  0  0  0  0  0
    6.6521   -1.7997   -4.3633 C   0  0  1  0  0  0  0  0  0  0  0  0
    6.1212   -0.8111   -5.4052 C   0  0  0  0  0  0  0  0  0  0  0  0
    8.1049   -1.8965   -4.4736 N   0  0  0  0  0  0  0  0  0  0  0  0
    8.7782   -3.0849   -4.4604 C   0  0  0  0  0  0  0  0  0  0  0  0
    8.1931   -4.1720   -4.4545 O   0  0  0  0  0  0  0  0  0  0  0  0
   10.2535   -2.9661   -4.4483 C   0  0  0  0  0  0  0  0  0  0  0  0
   11.0214   -1.8944   -3.9604 C   0  0  0  0  0  0  0  0  0  0  0  0
   12.3552   -2.3051   -4.1227 C   0  0  0  0  0  0  0  0  0  0  0  0
   13.6167   -1.8518   -3.8991 O   0  0  0  0  0  0  0  0  0  0  0  0
   14.4611   -2.8495   -4.3361 C   0  0  0  0  0  0  0  0  0  0  0  0
   15.9165   -2.5845   -4.1891 C   0  0  0  0  0  0  0  0  0  0  0  0
   13.7663   -3.9293   -4.8305 C   0  0  0  0  0  0  0  0  0  0  0  0
   12.3857   -3.5738   -4.6851 C   0  0  0  0  0  0  0  0  0  0  0  0
   11.0981   -3.9916   -4.8867 N   0  0  0  0  0  0  0  0  0  0  0  0
   10.7319   -5.2586   -5.5273 C   0  0  0  0  0  0  0  0  0  0  0  0
   10.9997   -6.4739   -4.6584 C   0  0  0  0  0  0  0  0  0  0  0  0
   10.2466   -6.6878   -3.4919 C   0  0  0  0  0  0  0  0  0  0  0  0
   10.4910   -7.8041   -2.6900 C   0  0  0  0  0  0  0  0  0  0  0  0
   11.4845   -8.7252   -3.0434 C   0  0  0  0  0  0  0  0  0  0  0  0
   12.2317   -8.5244   -4.2061 C   0  0  0  0  0  0  0  0  0  0  0  0
   11.9892   -7.4027   -5.0070 C   0  0  0  0  0  0  0  0  0  0  0  0
    4.9244   -3.9507    1.9639 H   0  0  0  0  0  0  0  0  0  0  0  0
    6.3470   -3.5582    0.9554 H   0  0  0  0  0  0  0  0  0  0  0  0
    5.7174   -5.2226    1.0175 H   0  0  0  0  0  0  0  0  0  0  0  0
    4.1577   -2.7826   -0.0370 H   0  0  0  0  0  0  0  0  0  0  0  0
    3.5744   -4.4456   -0.0851 H   0  0  0  0  0  0  0  0  0  0  0  0
    6.3409   -5.5782   -1.0885 H   0  0  0  0  0  0  0  0  0  0  0  0
    6.2155   -5.1181   -2.7751 H   0  0  0  0  0  0  0  0  0  0  0  0
    3.9969   -6.5567   -1.1484 H   0  0  0  0  0  0  0  0  0  0  0  0
    5.0565   -7.2837   -2.3755 H   0  0  0  0  0  0  0  0  0  0  0  0
    3.8475   -6.0728   -2.8545 H   0  0  0  0  0  0  0  0  0  0  0  0
    3.2905   -3.3150   -2.3945 H   0  0  0  0  0  0  0  0  0  0  0  0
    4.6229   -3.6913   -3.4830 H   0  0  0  0  0  0  0  0  0  0  0  0
    4.5065   -1.2400   -1.6325 H   0  0  0  0  0  0  0  0  0  0  0  0
    4.0851   -1.2390   -3.3379 H   0  0  0  0  0  0  0  0  0  0  0  0
    6.8292   -2.0606   -2.2283 H   0  0  0  0  0  0  0  0  0  0  0  0
    6.4697   -0.3955   -2.7206 H   0  0  0  0  0  0  0  0  0  0  0  0
    6.2876   -2.8080   -4.6068 H   0  0  0  0  0  0  0  0  0  0  0  0
    6.5209    0.2033   -5.2293 H   0  0  0  0  0  0  0  0  0  0  0  0
    5.0238   -0.7417   -5.3653 H   0  0  0  0  0  0  0  0  0  0  0  0
    6.4055   -1.1193   -6.4231 H   0  0  0  0  0  0  0  0  0  0  0  0
    8.6405   -1.0410   -4.5586 H   0  0  0  0  0  0  0  0  0  0  0  0
   10.6389   -0.9839   -3.5058 H   0  0  0  0  0  0  0  0  0  0  0  0
   16.2187   -1.6837   -4.7501 H   0  0  0  0  0  0  0  0  0  0  0  0
   16.4973   -3.4381   -4.5648 H   0  0  0  0  0  0  0  0  0  0  0  0
   16.1880   -2.4170   -3.1329 H   0  0  0  0  0  0  0  0  0  0  0  0
   14.2098   -4.8425   -5.2186 H   0  0  0  0  0  0  0  0  0  0  0  0
   11.3031   -5.3391   -6.4661 H   0  0  0  0  0  0  0  0  0  0  0  0
    9.6650   -5.2023   -5.7694 H   0  0  0  0  0  0  0  0  0  0  0  0
    9.4612   -5.9735   -3.2337 H   0  0  0  0  0  0  0  0  0  0  0  0
    9.8980   -7.9617   -1.7851 H   0  0  0  0  0  0  0  0  0  0  0  0
   11.6722   -9.5992   -2.4142 H   0  0  0  0  0  0  0  0  0  0  0  0
   13.0065   -9.2406   -4.4921 H   0  0  0  0  0  0  0  0  0  0  0  0
   12.5748   -7.2516   -5.9192 H   0  0  0  0  0  0  0  0  0  0  0  0
  1  2  1  0
  1 30  1  0
  1 31  1  0
  1 32  1  0
  2  3  1  0
  2 33  1  0
  2 34  1  0
  3  4  1  0
  3  6  1  0
  4  5  1  0
  4 35  1  0
  4 36  1  0
  5 37  1  0
  5 38  1  0
  5 39  1  0
  6  7  1  0
  6 40  1  0
  6 41  1  0
  7  8  1  0
  7 42  1  0
  7 43  1  0
  8  9  1  0
  8 44  1  0
  8 45  1  0
  9 10  1  0
  9 11  1  0
  9 46  1  6
 10 47  1  0
 10 48  1  0
 10 49  1  0
 11 12  1  0
 11 50  1  0
 12 13  2  0
 12 14  1  0
 14 15  2  0
 14 22  1  0
 15 16  1  0
 15 51  1  0
 16 17  1  0
 16 21  2  0
 17 18  1  0
 18 19  1  0
 18 20  2  0
 19 52  1  0
 19 53  1  0
 19 54  1  0
 20 21  1  0
 20 55  1  0
 21 22  1  0
 22 23  1  0
 23 24  1  0
 23 56  1  0
 23 57  1  0
 24 25  2  0
 24 29  1  0
 25 26  1  0
 25 58  1  0
 26 27  2  0
 26 59  1  0
 27 28  1  0
 27 60  1  0
 28 29  2  0
 28 61  1  0
 29 62  1  0
M  END

