
     RDKit          3D

 46 47  0  0  0  0  0  0  0  0999 V2000
   -1.2536   -5.7205   -0.0361 C   0  0  0  0  0  0  0  0  0  0  0  0
   -0.3881   -4.6049   -0.0261 O   0  0  0  0  0  0  0  0  0  0  0  0
   -0.4083   -3.7387    1.0198 C   0  0  0  0  0  0  0  0  0  0  0  0
   -1.3903   -3.7412    2.0177 C   0  0  0  0  0  0  0  0  0  0  0  0
   -1.3507   -2.7957    3.0479 C   0  0  0  0  0  0  0  0  0  0  0  0
   -0.3386   -1.8337    3.1165 C   0  0  0  0  0  0  0  0  0  0  0  0
   -0.2824   -0.8109    4.2254 C   0  0  0  0  0  0  0  0  0  0  0  0
    0.6445   -1.8601    2.1129 C   0  0  0  0  0  0  0  0  0  0  0  0
    0.6368   -2.7872    1.0678 C   0  0  0  0  0  0  0  0  0  0  0  0
    1.7475   -2.7293    0.0189 C   0  0  1  0  0  0  0  0  0  0  0  0
    2.3307   -4.0458   -0.3019 C   0  0  0  0  0  0  0  0  0  0  0  0
    2.8467   -5.0482   -0.5690 N   0  0  0  0  0  0  0  0  0  0  0  0
    1.3988   -1.9293   -1.2661 C   0  0  0  0  0  0  0  0  0  0  0  0
    0.3230   -2.5265   -2.1623 C   0  0  0  0  0  0  0  0  0  0  0  0
    0.2081   -1.6672   -3.2836 O   0  0  0  0  0  0  0  0  0  0  0  0
   -0.7012   -1.9518   -4.2584 C   0  0  0  0  0  0  0  0  0  0  0  0
   -1.5457   -3.0665   -4.2450 C   0  0  0  0  0  0  0  0  0  0  0  0
   -2.4495   -3.2722   -5.2963 C   0  0  0  0  0  0  0  0  0  0  0  0
   -2.5304   -2.3834   -6.3705 C   0  0  0  0  0  0  0  0  0  0  0  0
   -3.4965   -2.5974   -7.5111 C   0  0  0  0  0  0  0  0  0  0  0  0
   -1.6690   -1.2701   -6.3590 C   0  0  0  0  0  0  0  0  0  0  0  0
   -0.7560   -1.0306   -5.3315 C   0  0  0  0  0  0  0  0  0  0  0  0
    0.1600    0.1648   -5.3340 C   0  0  0  0  0  0  0  0  0  0  0  0
   -0.9727   -6.3228   -0.9100 H   0  0  0  0  0  0  0  0  0  0  0  0
   -2.3118   -5.4182   -0.1314 H   0  0  0  0  0  0  0  0  0  0  0  0
   -1.1349   -6.3321    0.8752 H   0  0  0  0  0  0  0  0  0  0  0  0
   -2.1966   -4.4743    1.9967 H   0  0  0  0  0  0  0  0  0  0  0  0
   -2.1309   -2.8158    3.8139 H   0  0  0  0  0  0  0  0  0  0  0  0
   -1.1277   -0.9245    4.9201 H   0  0  0  0  0  0  0  0  0  0  0  0
   -0.3117    0.2177    3.8284 H   0  0  0  0  0  0  0  0  0  0  0  0
    0.6470   -0.9025    4.8125 H   0  0  0  0  0  0  0  0  0  0  0  0
    1.4594   -1.1296    2.1533 H   0  0  0  0  0  0  0  0  0  0  0  0
    2.5741   -2.1716    0.4898 H   0  0  0  0  0  0  0  0  0  0  0  0
    2.3169   -1.8120   -1.8644 H   0  0  0  0  0  0  0  0  0  0  0  0
    1.0848   -0.9195   -0.9577 H   0  0  0  0  0  0  0  0  0  0  0  0
   -0.6426   -2.5974   -1.6338 H   0  0  0  0  0  0  0  0  0  0  0  0
    0.6019   -3.5464   -2.4816 H   0  0  0  0  0  0  0  0  0  0  0  0
   -1.5095   -3.7833   -3.4245 H   0  0  0  0  0  0  0  0  0  0  0  0
   -3.1017   -4.1500   -5.2691 H   0  0  0  0  0  0  0  0  0  0  0  0
   -4.1224   -3.4875   -7.3475 H   0  0  0  0  0  0  0  0  0  0  0  0
   -2.9671   -2.7343   -8.4697 H   0  0  0  0  0  0  0  0  0  0  0  0
   -4.1705   -1.7334   -7.6391 H   0  0  0  0  0  0  0  0  0  0  0  0
   -1.7118   -0.5573   -7.1893 H   0  0  0  0  0  0  0  0  0  0  0  0
   -0.0012    0.7868   -6.2264 H   0  0  0  0  0  0  0  0  0  0  0  0
    1.2185   -0.1432   -5.3108 H   0  0  0  0  0  0  0  0  0  0  0  0
    0.0027    0.7906   -4.4398 H   0  0  0  0  0  0  0  0  0  0  0  0
  1  2  1  0
  1 24  1  0
  1 25  1  0
  1 26  1  0
  2  3  1  0
  3  4  2  0
  3  9  1  0
  4  5  1  0
  4 27  1  0
  5  6  2  0
  5 28  1  0
  6  7  1  0
  6  8  1  0
  7 29  1  0
  7 30  1  0
  7 31  1  0
  8  9  2  0
  8 32  1  0
  9 10  1  0
 10 11  1  0
 10 13  1  0
 10 33  1  1
 11 12  3  0
 13 14  1  0
 13 34  1  0
 13 35  1  0
 14 15  1  0
 14 36  1  0
 14 37  1  0
 15 16  1  0
 16 17  2  0
 16 22  1  0
 17 18  1  0
 17 38  1  0
 18 19  2  0
 18 39  1  0
 19 20  1  0
 19 21  1  0
 20 40  1  0
 20 41  1  0
 20 42  1  0
 21 22  2  0
 21 43  1  0
 22 23  1  0
 23 44  1  0
 23 45  1  0
 23 46  1  0
M  END

