
     RDKit          3D

 63 64  0  0  0  0  0  0  0  0999 V2000
    3.1408   -0.4980    1.4400 C   0  0  0  0  0  0  0  0  0  0  0  0
    2.5580    0.0254    0.1463 C   0  0  0  0  0  0  0  0  0  0  0  0
    1.4139   -0.4541   -0.3920 C   0  0  0  0  0  0  0  0  0  0  0  0
    0.5440   -1.5695    0.1227 C   0  0  0  0  0  0  0  0  0  0  0  0
   -0.7070   -1.0983    0.8992 C   0  0  0  0  0  0  0  0  0  0  0  0
   -1.6722   -0.1784    0.1348 C   0  0  0  0  0  0  0  0  0  0  0  0
   -2.3099   -0.8237   -1.1006 C   0  0  0  0  0  0  0  0  0  0  0  0
   -3.3744   -0.0020   -1.8653 C   0  0  1  0  0  0  0  0  0  0  0  0
   -4.6220    0.2649   -1.0092 C   0  0  0  0  0  0  0  0  0  0  0  0
   -2.8021    1.3076   -2.4119 C   0  0  0  0  0  0  0  0  0  0  0  0
   -3.7551   -0.7465   -3.0277 O   0  0  0  0  0  0  0  0  0  0  0  0
    3.3024    1.1346   -0.5182 C   0  0  0  0  0  0  0  0  0  0  0  0
    4.0675    2.0512    0.2295 C   0  0  0  0  0  0  0  0  0  0  0  0
    4.7517    3.1032   -0.3823 C   0  0  0  0  0  0  0  0  0  0  0  0
    4.7013    3.2639   -1.7717 C   0  0  0  0  0  0  0  0  0  0  0  0
    5.4663    4.2380   -2.3711 O   0  0  0  0  0  0  0  0  0  0  0  0
    4.9115    5.4835   -2.8329 C   0  0  1  0  0  0  0  0  0  0  0  0
    3.6413    5.2859   -3.6792 C   0  0  0  0  0  0  0  0  0  0  0  0
    3.8478    4.5431   -4.8565 O   0  0  0  0  0  0  0  0  0  0  0  0
    4.5802    6.3447   -1.5796 C   0  0  0  0  0  0  0  0  0  0  0  0
    4.1182    7.6411   -1.8737 O   0  0  0  0  0  0  0  0  0  0  0  0
    6.0217    6.1550   -3.6482 C   0  0  0  0  0  0  0  0  0  0  0  0
    7.3501    5.7041   -3.5659 C   0  0  0  0  0  0  0  0  0  0  0  0
    8.3687    6.3455   -4.2750 C   0  0  0  0  0  0  0  0  0  0  0  0
    8.0846    7.4516   -5.0816 C   0  0  0  0  0  0  0  0  0  0  0  0
    6.7685    7.9082   -5.1768 C   0  0  0  0  0  0  0  0  0  0  0  0
    5.7460    7.2664   -4.4687 C   0  0  0  0  0  0  0  0  0  0  0  0
    3.9740    2.3447   -2.5420 C   0  0  0  0  0  0  0  0  0  0  0  0
    3.2902    1.3027   -1.9186 C   0  0  0  0  0  0  0  0  0  0  0  0
    2.6622   -1.4307    1.7656 H   0  0  0  0  0  0  0  0  0  0  0  0
    3.0161    0.2301    2.2602 H   0  0  0  0  0  0  0  0  0  0  0  0
    4.2230   -0.6828    1.3428 H   0  0  0  0  0  0  0  0  0  0  0  0
    1.0476    0.0349   -1.3010 H   0  0  0  0  0  0  0  0  0  0  0  0
    1.1175   -2.2439    0.7775 H   0  0  0  0  0  0  0  0  0  0  0  0
    0.2231   -2.1871   -0.7350 H   0  0  0  0  0  0  0  0  0  0  0  0
   -0.3727   -0.5741    1.8112 H   0  0  0  0  0  0  0  0  0  0  0  0
   -1.2581   -1.9927    1.2433 H   0  0  0  0  0  0  0  0  0  0  0  0
   -1.1417    0.7443   -0.1556 H   0  0  0  0  0  0  0  0  0  0  0  0
   -2.4636    0.1370    0.8360 H   0  0  0  0  0  0  0  0  0  0  0  0
   -2.7805   -1.7803   -0.7989 H   0  0  0  0  0  0  0  0  0  0  0  0
   -1.5346   -1.0881   -1.8390 H   0  0  0  0  0  0  0  0  0  0  0  0
   -4.4036    0.9015   -0.1378 H   0  0  0  0  0  0  0  0  0  0  0  0
   -5.0483   -0.6818   -0.6340 H   0  0  0  0  0  0  0  0  0  0  0  0
   -5.3905    0.7654   -1.6178 H   0  0  0  0  0  0  0  0  0  0  0  0
   -2.5269    2.0008   -1.6035 H   0  0  0  0  0  0  0  0  0  0  0  0
   -3.5504    1.7989   -3.0522 H   0  0  0  0  0  0  0  0  0  0  0  0
   -1.9102    1.1093   -3.0263 H   0  0  0  0  0  0  0  0  0  0  0  0
   -4.1102   -1.5956   -2.7317 H   0  0  0  0  0  0  0  0  0  0  0  0
    4.1241    1.9568    1.3155 H   0  0  0  0  0  0  0  0  0  0  0  0
    5.3443    3.8015    0.2126 H   0  0  0  0  0  0  0  0  0  0  0  0
    3.2056    6.2821   -3.8760 H   0  0  0  0  0  0  0  0  0  0  0  0
    2.8965    4.7365   -3.0840 H   0  0  0  0  0  0  0  0  0  0  0  0
    4.5944    4.9312   -5.3346 H   0  0  0  0  0  0  0  0  0  0  0  0
    5.4815    6.3534   -0.9384 H   0  0  0  0  0  0  0  0  0  0  0  0
    3.7766    5.8448   -1.0154 H   0  0  0  0  0  0  0  0  0  0  0  0
    4.8626    8.1586   -2.2096 H   0  0  0  0  0  0  0  0  0  0  0  0
    7.5728    4.8384   -2.9431 H   0  0  0  0  0  0  0  0  0  0  0  0
    9.3942    5.9748   -4.1975 H   0  0  0  0  0  0  0  0  0  0  0  0
    8.8831    7.9506   -5.6365 H   0  0  0  0  0  0  0  0  0  0  0  0
    6.5288    8.7667   -5.8096 H   0  0  0  0  0  0  0  0  0  0  0  0
    4.7242    7.6372   -4.5688 H   0  0  0  0  0  0  0  0  0  0  0  0
    3.9650    2.4611   -3.6270 H   0  0  0  0  0  0  0  0  0  0  0  0
    2.7566    0.5806   -2.5404 H   0  0  0  0  0  0  0  0  0  0  0  0
  1  2  1  0
  1 30  1  0
  1 31  1  0
  1 32  1  0
  2  3  2  0
  2 12  1  0
  3  4  1  0
  3 33  1  0
  4  5  1  0
  4 34  1  0
  4 35  1  0
  5  6  1  0
  5 36  1  0
  5 37  1  0
  6  7  1  0
  6 38  1  0
  6 39  1  0
  7  8  1  0
  7 40  1  0
  7 41  1  0
  8  9  1  0
  8 10  1  0
  8 11  1  6
  9 42  1  0
  9 43  1  0
  9 44  1  0
 10 45  1  0
 10 46  1  0
 10 47  1  0
 11 48  1  0
 12 13  2  0
 12 29  1  0
 13 14  1  0
 13 49  1  0
 14 15  2  0
 14 50  1  0
 15 16  1  0
 15 28  1  0
 17 16  1  1
 17 18  1  0
 17 20  1  0
 17 22  1  0
 18 19  1  0
 18 51  1  0
 18 52  1  0
 19 53  1  0
 20 21  1  0
 20 54  1  0
 20 55  1  0
 21 56  1  0
 22 23  2  0
 22 27  1  0
 23 24  1  0
 23 57  1  0
 24 25  2  0
 24 58  1  0
 25 26  1  0
 25 59  1  0
 26 27  2  0
 26 60  1  0
 27 61  1  0
 28 29  2  0
 28 62  1  0
 29 63  1  0
M  END

