
     RDKit          3D

 73 81  0  0  0  0  0  0  0  0999 V2000
    0.5547   -0.1667    0.9916 C   0  0  0  0  0  0  0  0  0  0  0  0
    2.3919    0.2149    0.8095 Si  0  0  2  0  0  4  0  0  0  0  0  0
    3.1294    0.7859    2.4489 C   0  0  0  0  0  0  0  0  0  0  0  0
    2.9394    1.4416   -0.5386 C   0  0  0  0  0  0  0  0  0  0  0  0
    2.8470    2.9073   -0.4508 C   0  0  0  0  0  0  0  0  0  0  0  0
    3.9335    3.7585   -0.5930 C   0  0  0  0  0  0  0  0  0  0  0  0
    3.8505    5.1677   -0.4496 C   0  0  0  0  0  0  0  0  0  0  0  0
    2.6794    5.8550   -0.1557 C   0  0  0  0  0  0  0  0  0  0  0  0
    2.6323    7.3089   -0.0190 C   0  0  0  0  0  0  0  0  0  0  0  0
    1.5612    8.1309    0.2917 C   0  0  0  0  0  0  0  0  0  0  0  0
    1.9001    9.5122    0.3373 C   0  0  0  0  0  0  0  0  0  0  0  0
    3.2245    9.7454    0.0620 C   0  0  0  0  0  0  0  0  0  0  0  0
    4.0784    8.2796   -0.2580 S   0  0  0  0  0  0  0  0  0  0  0  0
    1.5120    5.0189    0.0079 C   0  0  0  0  0  0  0  0  0  0  0  0
    1.6053    3.5661   -0.1335 C   0  0  0  0  0  0  0  0  0  0  0  0
    0.4344    2.9494    0.0418 N   0  0  0  0  0  0  0  0  0  0  0  0
   -0.6841    4.1027    0.3660 S   0  0  0  0  0  0  0  0  0  0  0  0
    0.2735    5.4308    0.2889 N   0  0  0  0  0  0  0  0  0  0  0  0
    3.6701    0.7483   -1.4702 C   0  0  0  0  0  0  0  0  0  0  0  0
    4.3224    1.3893   -2.6514 C   0  0  0  0  0  0  0  0  0  0  0  0
    5.7087    1.2878   -2.8678 C   0  0  0  0  0  0  0  0  0  0  0  0
    6.3099    1.9148   -3.9617 C   0  0  0  0  0  0  0  0  0  0  0  0
    5.5353    2.6435   -4.8696 C   0  0  0  0  0  0  0  0  0  0  0  0
    4.1546    2.7430   -4.6727 C   0  0  0  0  0  0  0  0  0  0  0  0
    3.5555    2.1247   -3.5729 C   0  0  0  0  0  0  0  0  0  0  0  0
    3.7907   -0.7352   -1.2538 C   0  0  0  0  0  0  0  0  0  0  0  0
    4.5003   -1.5826   -2.2587 C   0  0  0  0  0  0  0  0  0  0  0  0
    4.0877   -1.6267   -3.6029 C   0  0  0  0  0  0  0  0  0  0  0  0
    4.7438   -2.4443   -4.5262 C   0  0  0  0  0  0  0  0  0  0  0  0
    5.8349   -3.2227   -4.1278 C   0  0  0  0  0  0  0  0  0  0  0  0
    6.2630   -3.1793   -2.7974 C   0  0  0  0  0  0  0  0  0  0  0  0
    5.6000   -2.3698   -1.8723 C   0  0  0  0  0  0  0  0  0  0  0  0
    3.2241   -1.2312   -0.1061 C   0  0  0  0  0  0  0  0  0  0  0  0
    3.0524   -2.6576    0.2093 C   0  0  0  0  0  0  0  0  0  0  0  0
    2.6446   -3.6091   -0.7151 C   0  0  0  0  0  0  0  0  0  0  0  0
    2.4255   -4.9734   -0.3931 C   0  0  0  0  0  0  0  0  0  0  0  0
    2.5945   -5.5134    0.8757 C   0  0  0  0  0  0  0  0  0  0  0  0
    2.3629   -6.9260    1.1679 C   0  0  0  0  0  0  0  0  0  0  0  0
    2.4665   -7.6061    2.3706 C   0  0  0  0  0  0  0  0  0  0  0  0
    2.1596   -8.9918    2.2675 C   0  0  0  0  0  0  0  0  0  0  0  0
    1.8234   -9.3698    0.9914 C   0  0  0  0  0  0  0  0  0  0  0  0
    1.8772   -8.0373   -0.1048 S   0  0  0  0  0  0  0  0  0  0  0  0
    3.0128   -4.5672    1.8846 C   0  0  0  0  0  0  0  0  0  0  0  0
    3.2300   -3.1603    1.5483 C   0  0  0  0  0  0  0  0  0  0  0  0
    3.6172   -2.4288    2.5955 N   0  0  0  0  0  0  0  0  0  0  0  0
    3.6926   -3.4280    3.8924 S   0  0  0  0  0  0  0  0  0  0  0  0
    3.2430   -4.8305    3.1731 N   0  0  0  0  0  0  0  0  0  0  0  0
    0.0255    0.6644    1.4786 H   0  0  0  0  0  0  0  0  0  0  0  0
    0.4274   -1.0768    1.6017 H   0  0  0  0  0  0  0  0  0  0  0  0
    0.0862   -0.3379    0.0105 H   0  0  0  0  0  0  0  0  0  0  0  0
    2.7449    1.7903    2.6939 H   0  0  0  0  0  0  0  0  0  0  0  0
    4.2272    0.8401    2.3916 H   0  0  0  0  0  0  0  0  0  0  0  0
    2.8664    0.0953    3.2622 H   0  0  0  0  0  0  0  0  0  0  0  0
    4.9119    3.3299   -0.8134 H   0  0  0  0  0  0  0  0  0  0  0  0
    4.7763    5.7342   -0.5768 H   0  0  0  0  0  0  0  0  0  0  0  0
    0.5661    7.7330    0.4781 H   0  0  0  0  0  0  0  0  0  0  0  0
    1.1859   10.3046    0.5665 H   0  0  0  0  0  0  0  0  0  0  0  0
    3.7504   10.6986    0.0280 H   0  0  0  0  0  0  0  0  0  0  0  0
    6.3232    0.7168   -2.1683 H   0  0  0  0  0  0  0  0  0  0  0  0
    7.3899    1.8299   -4.1074 H   0  0  0  0  0  0  0  0  0  0  0  0
    6.0053    3.1289   -5.7287 H   0  0  0  0  0  0  0  0  0  0  0  0
    3.5393    3.3061   -5.3793 H   0  0  0  0  0  0  0  0  0  0  0  0
    2.4765    2.2061   -3.4219 H   0  0  0  0  0  0  0  0  0  0  0  0
    3.2400   -1.0192   -3.9269 H   0  0  0  0  0  0  0  0  0  0  0  0
    4.4023   -2.4699   -5.5643 H   0  0  0  0  0  0  0  0  0  0  0  0
    6.3516   -3.8577   -4.8520 H   0  0  0  0  0  0  0  0  0  0  0  0
    7.1183   -3.7799   -2.4769 H   0  0  0  0  0  0  0  0  0  0  0  0
    5.9365   -2.3400   -0.8333 H   0  0  0  0  0  0  0  0  0  0  0  0
    2.4668   -3.2993   -1.7454 H   0  0  0  0  0  0  0  0  0  0  0  0
    2.0987   -5.6276   -1.2052 H   0  0  0  0  0  0  0  0  0  0  0  0
    2.7567   -7.1051    3.2914 H   0  0  0  0  0  0  0  0  0  0  0  0
    2.1875   -9.6835    3.1109 H   0  0  0  0  0  0  0  0  0  0  0  0
    1.5463  -10.3592    0.6301 H   0  0  0  0  0  0  0  0  0  0  0  0
  2  1  1  1
  1 48  1  0
  1 49  1  0
  1 50  1  0
  2  3  1  0
  2  4  1  0
  2 33  1  0
  3 51  1  0
  3 52  1  0
  3 53  1  0
  4  5  1  0
  4 19  2  0
  5  6  2  0
  5 15  1  0
  6  7  1  0
  6 54  1  0
  7  8  2  0
  7 55  1  0
  8  9  1  0
  8 14  1  0
  9 10  2  0
  9 13  1  0
 10 11  1  0
 10 56  1  0
 11 12  2  0
 11 57  1  0
 12 13  1  0
 12 58  1  0
 14 15  1  0
 14 18  2  0
 15 16  2  0
 16 17  1  0
 17 18  1  0
 19 20  1  0
 19 26  1  0
 20 21  2  0
 20 25  1  0
 21 22  1  0
 21 59  1  0
 22 23  2  0
 22 60  1  0
 23 24  1  0
 23 61  1  0
 24 25  2  0
 24 62  1  0
 25 63  1  0
 26 27  1  0
 26 33  2  0
 27 28  2  0
 27 32  1  0
 28 29  1  0
 28 64  1  0
 29 30  2  0
 29 65  1  0
 30 31  1  0
 30 66  1  0
 31 32  2  0
 31 67  1  0
 32 68  1  0
 33 34  1  0
 34 35  2  0
 34 44  1  0
 35 36  1  0
 35 69  1  0
 36 37  2  0
 36 70  1  0
 37 38  1  0
 37 43  1  0
 38 39  2  0
 38 42  1  0
 39 40  1  0
 39 71  1  0
 40 41  2  0
 40 72  1  0
 41 42  1  0
 41 73  1  0
 43 44  1  0
 43 47  2  0
 44 45  2  0
 45 46  1  0
 46 47  1  0
M  END

