
     RDKit          3D

 46 48  0  0  0  0  0  0  0  0999 V2000
    6.0383   -3.0387    0.6875 C   0  0  0  0  0  0  0  0  0  0  0  0
    5.9019   -1.5897    0.2245 C   0  0  0  0  0  0  0  0  0  0  0  0
    7.0492   -1.1669   -0.7100 C   0  0  1  0  0  0  0  0  0  0  0  0
    7.1227   -1.9921   -1.8402 O   0  0  0  0  0  0  0  0  0  0  0  0
    6.8996    0.2837   -1.1599 C   0  0  0  0  0  0  0  0  0  0  0  0
    6.7974    0.5862   -2.3309 O   0  0  0  0  0  0  0  0  0  0  0  0
    6.8948    1.1539   -0.1507 O   0  0  0  0  0  0  0  0  0  0  0  0
    6.7681    2.5808   -0.4638 C   0  0  1  0  0  0  0  0  0  0  0  0
    5.2976    2.9386   -0.5389 C   0  0  0  0  0  0  0  0  0  0  0  0
    7.3593    3.2826    0.5647 O   0  0  0  0  0  0  0  0  0  0  0  0
    8.7555    3.6378    0.5071 C   0  0  2  0  0  0  0  0  0  0  0  0
    9.0610    4.2222    1.8933 C   0  0  0  0  0  0  0  0  0  0  0  0
   10.5272    4.6803    1.9616 C   0  0  2  0  0  0  0  0  0  0  0  0
   10.7647    5.7893    0.9233 C   0  0  0  0  0  0  0  0  0  0  0  0
   10.3571    5.3887   -0.4995 C   0  0  2  0  0  0  0  0  0  0  0  0
    8.9707    4.7319   -0.5554 C   0  0  0  0  0  0  0  0  0  0  0  0
   11.3648    4.6103   -1.1721 O   0  0  0  0  0  0  0  0  0  0  0  0
   11.7903    3.3811   -0.7922 C   0  0  0  0  0  0  0  0  0  0  0  0
   12.6543    2.8495   -1.4383 O   0  0  0  0  0  0  0  0  0  0  0  0
   11.1640    2.7130    0.4344 C   0  0  1  0  0  0  0  0  0  0  0  0
   11.4496    3.4694    1.7498 C   0  0  0  0  0  0  0  0  0  0  0  0
    9.6557    2.4130    0.2669 C   0  0  0  0  0  0  0  0  0  0  0  0
    5.1846   -3.3359    1.3165 H   0  0  0  0  0  0  0  0  0  0  0  0
    6.9584   -3.1844    1.2781 H   0  0  0  0  0  0  0  0  0  0  0  0
    6.0839   -3.7163   -0.1778 H   0  0  0  0  0  0  0  0  0  0  0  0
    5.8788   -0.9030    1.0861 H   0  0  0  0  0  0  0  0  0  0  0  0
    4.9526   -1.4575   -0.3241 H   0  0  0  0  0  0  0  0  0  0  0  0
    7.9990   -1.2231   -0.1370 H   0  0  0  0  0  0  0  0  0  0  0  0
    7.0196   -1.4058   -2.6097 H   0  0  0  0  0  0  0  0  0  0  0  0
    7.2645    2.7327   -1.4351 H   0  0  0  0  0  0  0  0  0  0  0  0
    4.8224    2.7517    0.4354 H   0  0  0  0  0  0  0  0  0  0  0  0
    4.7972    2.3437   -1.3158 H   0  0  0  0  0  0  0  0  0  0  0  0
    5.1893    4.0051   -0.7853 H   0  0  0  0  0  0  0  0  0  0  0  0
    8.8498    3.4550    2.6553 H   0  0  0  0  0  0  0  0  0  0  0  0
    8.3731    5.0620    2.0836 H   0  0  0  0  0  0  0  0  0  0  0  0
   10.7271    5.0963    2.9630 H   0  0  0  0  0  0  0  0  0  0  0  0
   11.8189    6.1104    0.9135 H   0  0  0  0  0  0  0  0  0  0  0  0
   10.1670    6.6738    1.2023 H   0  0  0  0  0  0  0  0  0  0  0  0
   10.3249    6.2958   -1.1198 H   0  0  0  0  0  0  0  0  0  0  0  0
    8.8098    4.3436   -1.5738 H   0  0  0  0  0  0  0  0  0  0  0  0
    8.2141    5.5148   -0.3816 H   0  0  0  0  0  0  0  0  0  0  0  0
   11.6899    1.7496    0.4695 H   0  0  0  0  0  0  0  0  0  0  0  0
   12.5088    3.7735    1.7853 H   0  0  0  0  0  0  0  0  0  0  0  0
   11.2998    2.7627    2.5835 H   0  0  0  0  0  0  0  0  0  0  0  0
    9.3701    1.6413    0.9986 H   0  0  0  0  0  0  0  0  0  0  0  0
    9.4781    1.9853   -0.7329 H   0  0  0  0  0  0  0  0  0  0  0  0
  1  2  1  0
  1 23  1  0
  1 24  1  0
  1 25  1  0
  2  3  1  0
  2 26  1  0
  2 27  1  0
  3  4  1  0
  3  5  1  0
  3 28  1  1
  4 29  1  0
  5  6  2  0
  5  7  1  0
  7  8  1  0
  8  9  1  0
  8 10  1  0
  8 30  1  6
  9 31  1  0
  9 32  1  0
  9 33  1  0
 11 10  1  1
 11 12  1  0
 11 16  1  0
 11 22  1  0
 12 13  1  0
 12 34  1  0
 12 35  1  0
 13 14  1  0
 13 21  1  0
 13 36  1  1
 14 15  1  0
 14 37  1  0
 14 38  1  0
 15 16  1  0
 15 17  1  0
 15 39  1  6
 16 40  1  0
 16 41  1  0
 17 18  1  0
 18 19  2  0
 18 20  1  0
 20 21  1  0
 20 22  1  0
 20 42  1  1
 21 43  1  0
 21 44  1  0
 22 45  1  0
 22 46  1  0
M  END

