
     RDKit          3D

146164  0  0  0  0  0  0  0  0999 V2000
    3.7913    0.0430   -1.9274 C   0  0  0  0  0  0  0  0  0  0  0  0
    2.6098    0.3339   -1.0011 C   0  0  0  0  0  0  0  0  0  0  0  0
    2.8836    1.3578    0.0074 N   0  0  0  0  0  0  0  0  0  0  0  0
    2.4622    2.6781   -0.0490 C   0  0  0  0  0  0  0  0  0  0  0  0
    1.5419    3.1963   -1.0869 C   0  0  0  0  0  0  0  0  0  0  0  0
    0.3056    3.7574   -0.7135 C   0  0  0  0  0  0  0  0  0  0  0  0
   -0.5716    4.2723   -1.6653 C   0  0  0  0  0  0  0  0  0  0  0  0
   -0.2602    4.2485   -3.0386 C   0  0  0  0  0  0  0  0  0  0  0  0
   -1.1959    4.7957   -4.0547 C   0  0  0  0  0  0  0  0  0  0  0  0
   -1.9813    5.9349   -3.7751 C   0  0  0  0  0  0  0  0  0  0  0  0
   -2.8632    6.4662   -4.7178 C   0  0  0  0  0  0  0  0  0  0  0  0
   -2.9722    5.8550   -5.9712 C   0  0  0  0  0  0  0  0  0  0  0  0
   -2.1940    4.7167   -6.2638 C   0  0  0  0  0  0  0  0  0  0  0  0
   -1.3171    4.1905   -5.3238 C   0  0  0  0  0  0  0  0  0  0  0  0
   -2.4818    4.2146   -7.6839 C   0  0  1  0  0  0  0  0  0  0  0  0
   -1.2372    4.1484   -8.5763 C   0  0  0  0  0  0  0  0  0  0  0  0
   -0.3563    5.1714   -8.9169 C   0  0  0  0  0  0  0  0  0  0  0  0
    0.7275    4.8810   -9.7565 C   0  0  0  0  0  0  0  0  0  0  0  0
    0.9224    3.5822  -10.2458 C   0  0  0  0  0  0  0  0  0  0  0  0
    0.0388    2.5528   -9.9051 C   0  0  0  0  0  0  0  0  0  0  0  0
   -1.0442    2.8402   -9.0670 C   0  0  0  0  0  0  0  0  0  0  0  0
   -2.1185    1.9803   -8.5468 C   0  0  0  0  0  0  0  0  0  0  0  0
   -2.3783    0.6184   -8.7354 C   0  0  0  0  0  0  0  0  0  0  0  0
   -3.4920    0.0492   -8.1092 C   0  0  0  0  0  0  0  0  0  0  0  0
   -4.3349    0.8291   -7.3056 C   0  0  0  0  0  0  0  0  0  0  0  0
   -4.0768    2.1932   -7.1152 C   0  0  0  0  0  0  0  0  0  0  0  0
   -2.9688    2.7621   -7.7373 C   0  0  0  0  0  0  0  0  0  0  0  0
   -3.5265    5.2324   -8.1564 C   0  0  0  0  0  0  0  0  0  0  0  0
   -4.1768    5.3040   -9.3852 C   0  0  0  0  0  0  0  0  0  0  0  0
   -5.1058    6.3307   -9.6017 C   0  0  0  0  0  0  0  0  0  0  0  0
   -5.3768    7.2708   -8.5981 C   0  0  0  0  0  0  0  0  0  0  0  0
   -4.7252    7.2014   -7.3624 C   0  0  0  0  0  0  0  0  0  0  0  0
   -3.7968    6.1772   -7.1438 C   0  0  0  0  0  0  0  0  0  0  0  0
    0.9763    3.6888   -3.4116 C   0  0  0  0  0  0  0  0  0  0  0  0
    1.8584    3.1803   -2.4585 C   0  0  0  0  0  0  0  0  0  0  0  0
    2.9767    3.3454    1.0653 C   0  0  0  0  0  0  0  0  0  0  0  0
    2.7371    4.7637    1.4166 C   0  0  0  0  0  0  0  0  0  0  0  0
    2.3207    5.1160    2.7381 C   0  0  0  0  0  0  0  0  0  0  0  0
    2.0743    6.4253    3.0850 C   0  0  0  0  0  0  0  0  0  0  0  0
    2.2262    7.4785    2.1401 C   0  0  0  0  0  0  0  0  0  0  0  0
    1.9811    8.8421    2.4627 C   0  0  0  0  0  0  0  0  0  0  0  0
    2.1422    9.8332    1.5163 C   0  0  0  0  0  0  0  0  0  0  0  0
    2.5570    9.5028    0.2005 C   0  0  0  0  0  0  0  0  0  0  0  0
    2.8020    8.1896   -0.1433 C   0  0  0  0  0  0  0  0  0  0  0  0
    2.6448    7.1424    0.8093 C   0  0  0  0  0  0  0  0  0  0  0  0
    2.8938    5.7810    0.4854 C   0  0  0  0  0  0  0  0  0  0  0  0
    3.7427    2.3894    1.8174 C   0  0  0  0  0  0  0  0  0  0  0  0
    4.5073    2.6424    3.0597 C   0  0  0  0  0  0  0  0  0  0  0  0
    5.3836    3.7689    3.1440 C   0  0  0  0  0  0  0  0  0  0  0  0
    6.1204    4.0182    4.2798 C   0  0  0  0  0  0  0  0  0  0  0  0
    6.0367    3.1631    5.4143 C   0  0  0  0  0  0  0  0  0  0  0  0
    6.7824    3.3895    6.6043 C   0  0  0  0  0  0  0  0  0  0  0  0
    6.6706    2.5357    7.6825 C   0  0  0  0  0  0  0  0  0  0  0  0
    5.8052    1.4136    7.6175 C   0  0  0  0  0  0  0  0  0  0  0  0
    5.0692    1.1669    6.4773 C   0  0  0  0  0  0  0  0  0  0  0  0
    5.1615    2.0281    5.3467 C   0  0  0  0  0  0  0  0  0  0  0  0
    4.4124    1.8015    4.1598 C   0  0  0  0  0  0  0  0  0  0  0  0
    3.6594    1.1715    1.1395 C   0  0  0  0  0  0  0  0  0  0  0  0
    4.2841   -0.1270    1.4853 C   0  0  0  0  0  0  0  0  0  0  0  0
    3.5131   -1.2703    1.7667 C   0  0  0  0  0  0  0  0  0  0  0  0
    4.1140   -2.4827    2.1050 C   0  0  0  0  0  0  0  0  0  0  0  0
    5.5138   -2.6060    2.1896 C   0  0  0  0  0  0  0  0  0  0  0  0
    6.1529   -3.8978    2.5520 C   0  0  0  0  0  0  0  0  0  0  0  0
    7.3810   -4.2844    1.9735 C   0  0  0  0  0  0  0  0  0  0  0  0
    7.9960   -5.4946    2.2988 C   0  0  0  0  0  0  0  0  0  0  0  0
    7.3807   -6.3465    3.2218 C   0  0  0  0  0  0  0  0  0  0  0  0
    6.1540   -5.9731    3.8076 C   0  0  0  0  0  0  0  0  0  0  0  0
    5.5445   -4.7683    3.4814 C   0  0  0  0  0  0  0  0  0  0  0  0
    5.6735   -7.0485    4.7892 C   0  0  2  0  0  0  0  0  0  0  0  0
    4.2835   -7.6048    4.4606 C   0  0  0  0  0  0  0  0  0  0  0  0
    3.8465   -8.2162    3.2885 C   0  0  0  0  0  0  0  0  0  0  0  0
    2.5175   -8.6532    3.2067 C   0  0  0  0  0  0  0  0  0  0  0  0
    1.6417   -8.4783    4.2869 C   0  0  0  0  0  0  0  0  0  0  0  0
    2.0783   -7.8645    5.4655 C   0  0  0  0  0  0  0  0  0  0  0  0
    3.4048   -7.4272    5.5496 C   0  0  0  0  0  0  0  0  0  0  0  0
    4.1355   -6.7608    6.6387 C   0  0  0  0  0  0  0  0  0  0  0  0
    3.7221   -6.3655    7.9156 C   0  0  0  0  0  0  0  0  0  0  0  0
    4.6438   -5.7398    8.7614 C   0  0  0  0  0  0  0  0  0  0  0  0
    5.9602   -5.5116    8.3381 C   0  0  0  0  0  0  0  0  0  0  0  0
    6.3768   -5.9067    7.0598 C   0  0  0  0  0  0  0  0  0  0  0  0
    5.4613   -6.5300    6.2161 C   0  0  0  0  0  0  0  0  0  0  0  0
    6.7963   -8.0859    4.6715 C   0  0  0  0  0  0  0  0  0  0  0  0
    6.9249   -9.3060    5.3294 C   0  0  0  0  0  0  0  0  0  0  0  0
    8.0474  -10.1028    5.0664 C   0  0  0  0  0  0  0  0  0  0  0  0
    9.0255   -9.6793    4.1562 C   0  0  0  0  0  0  0  0  0  0  0  0
    8.8991   -8.4540    3.4938 C   0  0  0  0  0  0  0  0  0  0  0  0
    7.7788   -7.6566    3.7544 C   0  0  0  0  0  0  0  0  0  0  0  0
    6.2827   -1.4566    1.9233 C   0  0  0  0  0  0  0  0  0  0  0  0
    5.6831   -0.2466    1.5778 C   0  0  0  0  0  0  0  0  0  0  0  0
    3.5022   -0.7126   -2.6754 H   0  0  0  0  0  0  0  0  0  0  0  0
    4.6526   -0.3475   -1.3655 H   0  0  0  0  0  0  0  0  0  0  0  0
    4.1162    0.9476   -2.4639 H   0  0  0  0  0  0  0  0  0  0  0  0
    2.3076   -0.5901   -0.4889 H   0  0  0  0  0  0  0  0  0  0  0  0
    1.7408    0.6719   -1.5808 H   0  0  0  0  0  0  0  0  0  0  0  0
    0.0286    3.7777    0.3424 H   0  0  0  0  0  0  0  0  0  0  0  0
   -1.5325    4.6749   -1.3371 H   0  0  0  0  0  0  0  0  0  0  0  0
   -1.8775    6.4292   -2.8068 H   0  0  0  0  0  0  0  0  0  0  0  0
   -3.4510    7.3550   -4.4747 H   0  0  0  0  0  0  0  0  0  0  0  0
   -0.7395    3.2934   -5.5579 H   0  0  0  0  0  0  0  0  0  0  0  0
   -0.5061    6.1853   -8.5372 H   0  0  0  0  0  0  0  0  0  0  0  0
    1.4266    5.6746  -10.0323 H   0  0  0  0  0  0  0  0  0  0  0  0
    1.7725    3.3722  -10.9000 H   0  0  0  0  0  0  0  0  0  0  0  0
    0.1951    1.5416  -10.2898 H   0  0  0  0  0  0  0  0  0  0  0  0
   -1.7243    0.0060   -9.3615 H   0  0  0  0  0  0  0  0  0  0  0  0
   -3.7073   -1.0134   -8.2478 H   0  0  0  0  0  0  0  0  0  0  0  0
   -5.2012    0.3694   -6.8231 H   0  0  0  0  0  0  0  0  0  0  0  0
   -4.7361    2.7988   -6.4882 H   0  0  0  0  0  0  0  0  0  0  0  0
   -3.9678    4.5723  -10.1697 H   0  0  0  0  0  0  0  0  0  0  0  0
   -5.6236    6.3987  -10.5618 H   0  0  0  0  0  0  0  0  0  0  0  0
   -6.1042    8.0654   -8.7830 H   0  0  0  0  0  0  0  0  0  0  0  0
   -4.9400    7.9369   -6.5829 H   0  0  0  0  0  0  0  0  0  0  0  0
    1.2707    3.6835   -4.4635 H   0  0  0  0  0  0  0  0  0  0  0  0
    2.8245    2.7901   -2.7851 H   0  0  0  0  0  0  0  0  0  0  0  0
    2.1892    4.3241    3.4780 H   0  0  0  0  0  0  0  0  0  0  0  0
    1.7526    6.6707    4.1011 H   0  0  0  0  0  0  0  0  0  0  0  0
    1.6619    9.0933    3.4782 H   0  0  0  0  0  0  0  0  0  0  0  0
    1.9512   10.8773    1.7773 H   0  0  0  0  0  0  0  0  0  0  0  0
    2.6817   10.2955   -0.5419 H   0  0  0  0  0  0  0  0  0  0  0  0
    3.1204    7.9337   -1.1578 H   0  0  0  0  0  0  0  0  0  0  0  0
    3.2237    5.5395   -0.5276 H   0  0  0  0  0  0  0  0  0  0  0  0
    5.4712    4.4342    2.2829 H   0  0  0  0  0  0  0  0  0  0  0  0
    6.7875    4.8840    4.3201 H   0  0  0  0  0  0  0  0  0  0  0  0
    7.4486    4.2557    6.6510 H   0  0  0  0  0  0  0  0  0  0  0  0
    7.2491    2.7210    8.5913 H   0  0  0  0  0  0  0  0  0  0  0  0
    5.7245    0.7427    8.4768 H   0  0  0  0  0  0  0  0  0  0  0  0
    4.4035    0.3008    6.4255 H   0  0  0  0  0  0  0  0  0  0  0  0
    3.7400    0.9413    4.1265 H   0  0  0  0  0  0  0  0  0  0  0  0
    2.4224   -1.2066    1.7362 H   0  0  0  0  0  0  0  0  0  0  0  0
    3.4827   -3.3538    2.2946 H   0  0  0  0  0  0  0  0  0  0  0  0
    7.8507   -3.6319    1.2343 H   0  0  0  0  0  0  0  0  0  0  0  0
    8.9429   -5.7696    1.8272 H   0  0  0  0  0  0  0  0  0  0  0  0
    4.6069   -4.4830    3.9637 H   0  0  0  0  0  0  0  0  0  0  0  0
    4.5274   -8.3546    2.4448 H   0  0  0  0  0  0  0  0  0  0  0  0
    2.1612   -9.1353    2.2928 H   0  0  0  0  0  0  0  0  0  0  0  0
    0.6082   -8.8251    4.2074 H   0  0  0  0  0  0  0  0  0  0  0  0
    1.3914   -7.7307    6.3051 H   0  0  0  0  0  0  0  0  0  0  0  0
    2.6965   -6.5411    8.2505 H   0  0  0  0  0  0  0  0  0  0  0  0
    4.3347   -5.4256    9.7616 H   0  0  0  0  0  0  0  0  0  0  0  0
    6.6684   -5.0209    9.0106 H   0  0  0  0  0  0  0  0  0  0  0  0
    7.4040   -5.7272    6.7326 H   0  0  0  0  0  0  0  0  0  0  0  0
    6.1642   -9.6389    6.0400 H   0  0  0  0  0  0  0  0  0  0  0  0
    8.1611  -11.0630    5.5760 H   0  0  0  0  0  0  0  0  0  0  0  0
    9.8950  -10.3126    3.9625 H   0  0  0  0  0  0  0  0  0  0  0  0
    9.6646   -8.1280    2.7850 H   0  0  0  0  0  0  0  0  0  0  0  0
    7.3705   -1.5035    2.0102 H   0  0  0  0  0  0  0  0  0  0  0  0
    6.3058    0.6293    1.3837 H   0  0  0  0  0  0  0  0  0  0  0  0
  1  2  1  0
  1 90  1  0
  1 91  1  0
  1 92  1  0
  2  3  1  0
  2 93  1  0
  2 94  1  0
  3  4  1  0
  3 58  1  0
  4  5  1  0
  4 36  2  0
  5  6  2  0
  5 35  1  0
  6  7  1  0
  6 95  1  0
  7  8  2  0
  7 96  1  0
  8  9  1  0
  8 34  1  0
  9 10  2  0
  9 14  1  0
 10 11  1  0
 10 97  1  0
 11 12  2  0
 11 98  1  0
 12 13  1  0
 12 33  1  0
 13 14  2  0
 15 13  1  1
 14 99  1  0
 15 16  1  0
 15 27  1  0
 15 28  1  0
 16 17  2  0
 16 21  1  0
 17 18  1  0
 17100  1  0
 18 19  2  0
 18101  1  0
 19 20  1  0
 19102  1  0
 20 21  2  0
 20103  1  0
 21 22  1  0
 22 23  2  0
 22 27  1  0
 23 24  1  0
 23104  1  0
 24 25  2  0
 24105  1  0
 25 26  1  0
 25106  1  0
 26 27  2  0
 26107  1  0
 28 29  1  0
 28 33  2  0
 29 30  2  0
 29108  1  0
 30 31  1  0
 30109  1  0
 31 32  2  0
 31110  1  0
 32 33  1  0
 32111  1  0
 34 35  2  0
 34112  1  0
 35113  1  0
 36 37  1  0
 36 47  1  0
 37 38  2  0
 37 46  1  0
 38 39  1  0
 38114  1  0
 39 40  2  0
 39115  1  0
 40 41  1  0
 40 45  1  0
 41 42  2  0
 41116  1  0
 42 43  1  0
 42117  1  0
 43 44  2  0
 43118  1  0
 44 45  1  0
 44119  1  0
 45 46  2  0
 46120  1  0
 47 48  1  0
 47 58  2  0
 48 49  2  0
 48 57  1  0
 49 50  1  0
 49121  1  0
 50 51  2  0
 50122  1  0
 51 52  1  0
 51 56  1  0
 52 53  2  0
 52123  1  0
 53 54  1  0
 53124  1  0
 54 55  2  0
 54125  1  0
 55 56  1  0
 55126  1  0
 56 57  2  0
 57127  1  0
 58 59  1  0
 59 60  2  0
 59 89  1  0
 60 61  1  0
 60128  1  0
 61 62  2  0
 61129  1  0
 62 63  1  0
 62 88  1  0
 63 64  2  0
 63 68  1  0
 64 65  1  0
 64130  1  0
 65 66  2  0
 65131  1  0
 66 67  1  0
 66 87  1  0
 67 68  2  0
 69 67  1  6
 68132  1  0
 69 70  1  0
 69 81  1  0
 69 82  1  0
 70 71  2  0
 70 75  1  0
 71 72  1  0
 71133  1  0
 72 73  2  0
 72134  1  0
 73 74  1  0
 73135  1  0
 74 75  2  0
 74136  1  0
 75 76  1  0
 76 77  2  0
 76 81  1  0
 77 78  1  0
 77137  1  0
 78 79  2  0
 78138  1  0
 79 80  1  0
 79139  1  0
 80 81  2  0
 80140  1  0
 82 83  1  0
 82 87  2  0
 83 84  2  0
 83141  1  0
 84 85  1  0
 84142  1  0
 85 86  2  0
 85143  1  0
 86 87  1  0
 86144  1  0
 88 89  2  0
 88145  1  0
 89146  1  0
M  END

