
     RDKit          3D

 33 34  0  0  0  0  0  0  0  0999 V2000
    0.9935    0.2586    0.0313 O   0  0  0  0  0  0  0  0  0  0  0  0
    2.1947    0.0527   -0.0342 C   0  0  0  0  0  0  0  0  0  0  0  0
    2.8353   -0.3060   -1.1760 N   0  0  0  0  0  0  0  0  0  0  0  0
    2.1235   -0.5690   -2.4188 C   0  0  0  0  0  0  0  0  0  0  0  0
    1.8789   -2.0543   -2.6995 C   0  0  1  0  0  0  0  0  0  0  0  0
    0.9472   -2.7833   -1.7179 C   0  0  0  0  0  0  0  0  0  0  0  0
    0.4998   -3.9846   -2.5524 C   0  0  0  0  0  0  0  0  0  0  0  0
    0.4656   -3.5346   -3.9036 O   0  0  0  0  0  0  0  0  0  0  0  0
    1.1583   -2.3049   -4.0366 C   0  0  0  0  0  0  0  0  0  0  0  0
    3.0604    0.3219    1.1947 C   0  0  0  0  0  0  0  0  0  0  0  0
    2.6629    1.4592    1.9150 C   0  0  0  0  0  0  0  0  0  0  0  0
    3.3364    1.8397    3.0658 C   0  0  0  0  0  0  0  0  0  0  0  0
    2.9498    2.9318    3.7244 F   0  0  0  0  0  0  0  0  0  0  0  0
    4.4101    1.1012    3.5507 C   0  0  0  0  0  0  0  0  0  0  0  0
    4.7941   -0.0458    2.8533 C   0  0  0  0  0  0  0  0  0  0  0  0
    6.2293   -0.8910    3.5717 S   0  0  1  0  0  0  0  0  0  0  0  0
    7.1578   -1.2977    2.5314 O   0  0  0  0  0  0  0  0  0  0  0  0
    6.6726   -0.1195    4.7234 O   0  0  0  0  0  0  0  0  0  0  0  0
    5.3120   -2.6444    4.3510 Cl  0  0  0  0  0  0  0  0  0  0  0  0
    4.1300   -0.4574    1.6804 C   0  0  0  0  0  0  0  0  0  0  0  0
    4.6078   -2.0994    0.8341 Br  0  0  0  0  0  0  0  0  0  0  0  0
    3.8277   -0.5063   -1.1381 H   0  0  0  0  0  0  0  0  0  0  0  0
    2.7016   -0.1229   -3.2457 H   0  0  0  0  0  0  0  0  0  0  0  0
    1.1633   -0.0363   -2.3569 H   0  0  0  0  0  0  0  0  0  0  0  0
    2.8528   -2.5776   -2.7194 H   0  0  0  0  0  0  0  0  0  0  0  0
    0.0921   -2.1371   -1.4610 H   0  0  0  0  0  0  0  0  0  0  0  0
    1.4420   -3.0721   -0.7788 H   0  0  0  0  0  0  0  0  0  0  0  0
   -0.4987   -4.3591   -2.2727 H   0  0  0  0  0  0  0  0  0  0  0  0
    1.2138   -4.8266   -2.4529 H   0  0  0  0  0  0  0  0  0  0  0  0
    0.4395   -1.4869   -4.2497 H   0  0  0  0  0  0  0  0  0  0  0  0
    1.8564   -2.3629   -4.8904 H   0  0  0  0  0  0  0  0  0  0  0  0
    1.8041    2.0338    1.5653 H   0  0  0  0  0  0  0  0  0  0  0  0
    4.9347    1.4049    4.4566 H   0  0  0  0  0  0  0  0  0  0  0  0
  1  2  2  0
  2  3  1  0
  2 10  1  0
  3  4  1  0
  3 22  1  0
  4  5  1  0
  4 23  1  0
  4 24  1  0
  5  6  1  0
  5  9  1  0
  5 25  1  6
  6  7  1  0
  6 26  1  0
  6 27  1  0
  7  8  1  0
  7 28  1  0
  7 29  1  0
  8  9  1  0
  9 30  1  0
  9 31  1  0
 10 11  2  0
 10 20  1  0
 11 12  1  0
 11 32  1  0
 12 13  1  0
 12 14  2  0
 14 15  1  0
 14 33  1  0
 15 16  1  0
 15 20  2  0
 16 17  2  0
 16 18  2  0
 16 19  1  1
 20 21  1  0
M  END

