
     RDKit          3D

 37 38  0  0  0  0  0  0  0  0999 V2000
    2.8128   -2.2354    0.2186 C   0  0  0  0  0  0  0  0  0  0  0  0
    2.6183   -0.4279    0.2348 S   0  0  0  0  0  0  0  0  0  0  0  0
    3.6735    0.0293    1.5832 C   0  0  0  0  0  0  0  0  0  0  0  0
    3.7837    1.3858    1.9089 C   0  0  0  0  0  0  0  0  0  0  0  0
    4.6389    1.7080    2.9836 C   0  0  0  0  0  0  0  0  0  0  0  0
    4.8764    2.9763    3.4125 N   0  0  0  0  0  0  0  0  0  0  0  0
    4.2889    4.2011    2.8855 C   0  0  1  0  0  0  0  0  0  0  0  0
    2.8645    4.4597    3.4272 C   0  0  0  0  0  0  0  0  0  0  0  0
    2.8698    4.8137    4.9211 C   0  0  0  0  0  0  0  0  0  0  0  0
    3.7863    6.0068    5.2594 C   0  0  2  0  0  0  0  0  0  0  0  0
    3.1796    7.3517    4.8156 C   0  0  0  0  0  0  0  0  0  0  0  0
    4.0176    8.4749    5.2214 N   0  0  0  0  0  0  0  0  0  0  0  0
    5.2032    5.7743    4.6954 C   0  0  0  0  0  0  0  0  0  0  0  0
    5.2013    5.3989    3.2054 C   0  0  0  0  0  0  0  0  0  0  0  0
    5.2987    0.7341    3.6561 N   0  0  0  0  0  0  0  0  0  0  0  0
    5.1045   -0.5101    3.2509 C   0  0  0  0  0  0  0  0  0  0  0  0
    4.3288   -0.9298    2.2474 N   0  0  0  0  0  0  0  0  0  0  0  0
    2.1792   -2.5938   -0.6051 H   0  0  0  0  0  0  0  0  0  0  0  0
    2.4813   -2.6715    1.1696 H   0  0  0  0  0  0  0  0  0  0  0  0
    3.8596   -2.5127    0.0402 H   0  0  0  0  0  0  0  0  0  0  0  0
    3.2310    2.1431    1.3536 H   0  0  0  0  0  0  0  0  0  0  0  0
    5.5110    3.0269    4.2018 H   0  0  0  0  0  0  0  0  0  0  0  0
    4.2351    4.0943    1.7884 H   0  0  0  0  0  0  0  0  0  0  0  0
    2.2333    3.5735    3.2521 H   0  0  0  0  0  0  0  0  0  0  0  0
    2.4158    5.2786    2.8382 H   0  0  0  0  0  0  0  0  0  0  0  0
    3.2120    3.9317    5.4894 H   0  0  0  0  0  0  0  0  0  0  0  0
    1.8399    5.0150    5.2622 H   0  0  0  0  0  0  0  0  0  0  0  0
    3.8716    6.0584    6.3613 H   0  0  0  0  0  0  0  0  0  0  0  0
    2.1393    7.3997    5.2062 H   0  0  0  0  0  0  0  0  0  0  0  0
    3.0877    7.3844    3.7165 H   0  0  0  0  0  0  0  0  0  0  0  0
    4.0037    8.5815    6.2368 H   0  0  0  0  0  0  0  0  0  0  0  0
    3.6635    9.3499    4.8366 H   0  0  0  0  0  0  0  0  0  0  0  0
    5.6918    4.9756    5.2830 H   0  0  0  0  0  0  0  0  0  0  0  0
    5.8041    6.6833    4.8474 H   0  0  0  0  0  0  0  0  0  0  0  0
    6.2265    5.1819    2.8622 H   0  0  0  0  0  0  0  0  0  0  0  0
    4.8530    6.2581    2.6092 H   0  0  0  0  0  0  0  0  0  0  0  0
    5.6436   -1.2914    3.8032 H   0  0  0  0  0  0  0  0  0  0  0  0
  1  2  1  0
  1 18  1  0
  1 19  1  0
  1 20  1  0
  2  3  1  0
  3  4  2  0
  3 17  1  0
  4  5  1  0
  4 21  1  0
  5  6  1  0
  5 15  2  0
  6  7  1  0
  6 22  1  0
  7  8  1  0
  7 14  1  0
  7 23  1  6
  8  9  1  0
  8 24  1  0
  8 25  1  0
  9 10  1  0
  9 26  1  0
  9 27  1  0
 10 11  1  0
 10 13  1  0
 10 28  1  1
 11 12  1  0
 11 29  1  0
 11 30  1  0
 12 31  1  0
 12 32  1  0
 13 14  1  0
 13 33  1  0
 13 34  1  0
 14 35  1  0
 14 36  1  0
 15 16  1  0
 16 17  2  0
 16 37  1  0
M  END

