
     RDKit          3D

 48 50  0  0  0  0  0  0  0  0999 V2000
    3.9627    6.4187   -2.8716 C   0  0  0  0  0  0  0  0  0  0  0  0
    3.7017    6.8211   -1.4179 C   0  0  0  0  0  0  0  0  0  0  0  0
    2.3758    7.5442   -1.1343 C   0  0  0  0  0  0  0  0  0  0  0  0
    1.0820    6.7375   -1.3299 C   0  0  0  0  0  0  0  0  0  0  0  0
    0.5930    6.6504   -2.7146 N   0  0  0  0  0  0  0  0  0  0  0  0
    0.5847    5.4244   -3.3405 C   0  0  0  0  0  0  0  0  0  0  0  0
    1.0499    4.4051   -2.8684 O   0  0  0  0  0  0  0  0  0  0  0  0
   -0.0033    5.4837   -4.5549 O   0  0  0  0  0  0  0  0  0  0  0  0
   -0.0521    4.2526   -5.3038 C   0  0  1  0  0  0  0  0  0  0  0  0
    0.9357    3.7753   -5.2233 H   0  0  0  0  0  0  0  0  0  0  0  0
   -1.1669    3.2914   -4.7887 C   0  0  0  0  0  0  0  0  0  0  0  0
   -2.1356    2.9791   -5.8380 N   0  0  0  0  0  0  0  0  0  0  0  0
   -2.7969    4.2085   -6.2880 C   0  0  0  0  0  0  0  0  0  0  0  0
   -1.7673    5.2316   -6.8612 C   0  0  0  0  0  0  0  0  0  0  0  0
   -0.3653    4.5986   -6.7650 C   0  0  2  0  0  0  0  0  0  0  0  0
   -0.3515    3.2783   -7.5613 C   0  0  0  0  0  0  0  0  0  0  0  0
   -1.4515    2.3418   -6.9657 C   0  0  0  0  0  0  0  0  0  0  0  0
    0.0440    7.8246   -3.3227 C   0  0  0  0  0  0  0  0  0  0  0  0
   -1.1292    8.4002   -2.8134 C   0  0  0  0  0  0  0  0  0  0  0  0
   -1.6591    9.5613   -3.3797 C   0  0  0  0  0  0  0  0  0  0  0  0
   -1.0096   10.1363   -4.4696 C   0  0  0  0  0  0  0  0  0  0  0  0
   -1.5155   11.2485   -5.0213 F   0  0  0  0  0  0  0  0  0  0  0  0
    0.1541    9.5823   -4.9997 C   0  0  0  0  0  0  0  0  0  0  0  0
    0.6811    8.4295   -4.4160 C   0  0  0  0  0  0  0  0  0  0  0  0
    4.9862    6.0265   -2.9872 H   0  0  0  0  0  0  0  0  0  0  0  0
    3.8632    7.2808   -3.5530 H   0  0  0  0  0  0  0  0  0  0  0  0
    3.2732    5.6289   -3.2033 H   0  0  0  0  0  0  0  0  0  0  0  0
    4.5182    7.4828   -1.0781 H   0  0  0  0  0  0  0  0  0  0  0  0
    3.7607    5.9222   -0.7779 H   0  0  0  0  0  0  0  0  0  0  0  0
    2.3875    7.8676   -0.0786 H   0  0  0  0  0  0  0  0  0  0  0  0
    2.3167    8.4752   -1.7266 H   0  0  0  0  0  0  0  0  0  0  0  0
    0.2850    7.1949   -0.7197 H   0  0  0  0  0  0  0  0  0  0  0  0
    1.2130    5.7056   -0.9770 H   0  0  0  0  0  0  0  0  0  0  0  0
   -1.6937    3.7651   -3.9457 H   0  0  0  0  0  0  0  0  0  0  0  0
   -0.7246    2.3567   -4.4124 H   0  0  0  0  0  0  0  0  0  0  0  0
   -3.3427    4.6369   -5.4321 H   0  0  0  0  0  0  0  0  0  0  0  0
   -3.5516    3.9358   -7.0433 H   0  0  0  0  0  0  0  0  0  0  0  0
   -1.7878    6.1775   -6.3005 H   0  0  0  0  0  0  0  0  0  0  0  0
   -1.9867    5.4745   -7.9138 H   0  0  0  0  0  0  0  0  0  0  0  0
    0.4002    5.2914   -7.1479 H   0  0  0  0  0  0  0  0  0  0  0  0
    0.6449    2.8092   -7.5031 H   0  0  0  0  0  0  0  0  0  0  0  0
   -0.5396    3.4920   -8.6259 H   0  0  0  0  0  0  0  0  0  0  0  0
   -1.0141    1.3936   -6.6137 H   0  0  0  0  0  0  0  0  0  0  0  0
   -2.2055    2.0823   -7.7261 H   0  0  0  0  0  0  0  0  0  0  0  0
   -1.6390    7.9295   -1.9699 H   0  0  0  0  0  0  0  0  0  0  0  0
   -2.5721   10.0201   -2.9952 H   0  0  0  0  0  0  0  0  0  0  0  0
    0.6361   10.0624   -5.8535 H   0  0  0  0  0  0  0  0  0  0  0  0
    1.5937    7.9829   -4.8138 H   0  0  0  0  0  0  0  0  0  0  0  0
  1  2  1  0
  1 25  1  0
  1 26  1  0
  1 27  1  0
  2  3  1  0
  2 28  1  0
  2 29  1  0
  3  4  1  0
  3 30  1  0
  3 31  1  0
  4  5  1  0
  4 32  1  0
  4 33  1  0
  5  6  1  0
  5 18  1  0
  6  7  2  0
  6  8  1  0
  8  9  1  0
  9 10  1  6
  9 11  1  0
  9 15  1  0
 11 12  1  0
 11 34  1  0
 11 35  1  0
 12 13  1  0
 12 17  1  0
 13 14  1  0
 13 36  1  0
 13 37  1  0
 14 15  1  0
 14 38  1  0
 14 39  1  0
 15 16  1  0
 15 40  1  6
 16 17  1  0
 16 41  1  0
 16 42  1  0
 17 43  1  0
 17 44  1  0
 18 19  2  0
 18 24  1  0
 19 20  1  0
 19 45  1  0
 20 21  2  0
 20 46  1  0
 21 22  1  0
 21 23  1  0
 23 24  2  0
 23 47  1  0
 24 48  1  0
M  END

