
     RDKit          3D

 71 76  0  0  0  0  0  0  0  0999 V2000
    4.8321    1.5274   -0.8039 C   0  0  0  0  0  0  0  0  0  0  0  0
    4.9596    0.3493   -1.6456 N   0  0  0  0  0  0  0  0  0  0  0  0
    5.5724    0.7033   -2.9152 C   0  0  0  0  0  0  0  0  0  0  0  0
    5.6080   -0.7902   -0.9725 C   0  0  1  0  0  0  0  0  0  0  0  0
    4.8691   -1.1984    0.3207 C   0  0  0  0  0  0  0  0  0  0  0  0
    3.4811   -1.7898    0.0121 C   0  0  0  0  0  0  0  0  0  0  0  0
    3.5206   -2.9559   -0.8748 N   0  0  0  0  0  0  0  0  0  0  0  0
    3.9273   -4.2072   -0.2429 C   0  0  1  0  0  0  0  0  0  0  0  0
    3.0478   -4.5977    0.9760 C   0  0  0  0  0  0  0  0  0  0  0  0
    3.1439   -6.1042    1.0064 C   0  0  0  0  0  0  0  0  0  0  0  0
    2.8522   -7.0052    2.0283 C   0  0  0  0  0  0  0  0  0  0  0  0
    2.9993   -8.3822    1.8227 C   0  0  0  0  0  0  0  0  0  0  0  0
    3.4443   -8.8670    0.5781 C   0  0  0  0  0  0  0  0  0  0  0  0
    3.6291  -10.2262    0.2814 N   0  0  0  0  0  0  0  0  0  0  0  0
    3.4445  -11.3755    0.9971 C   0  0  0  0  0  0  0  0  0  0  0  0
    3.7576  -12.4974    0.2928 N   0  0  0  0  0  0  0  0  0  0  0  0
    3.6029  -13.6468    0.9193 C   0  0  0  0  0  0  0  0  0  0  0  0
    3.1396  -13.7522    2.2452 C   0  0  0  0  0  0  0  0  0  0  0  0
    2.9780  -15.0530    2.9189 C   0  0  0  0  0  0  0  0  0  0  0  0
    3.2433  -16.1224    2.3825 O   0  0  0  0  0  0  0  0  0  0  0  0
    2.4738  -14.9330    4.3015 C   0  0  0  0  0  0  0  0  0  0  0  0
    2.2722  -16.1722    5.0979 C   0  0  0  0  0  0  0  0  0  0  0  0
    1.1712  -17.0212    4.8643 C   0  0  0  0  0  0  0  0  0  0  0  0
   -0.0209  -16.5758    3.6663 Cl  0  0  0  0  0  0  0  0  0  0  0  0
    0.9819  -18.2098    5.5726 C   0  0  0  0  0  0  0  0  0  0  0  0
    1.9073  -18.5784    6.5492 C   0  0  0  0  0  0  0  0  0  0  0  0
    3.0097  -17.7675    6.8169 C   0  0  0  0  0  0  0  0  0  0  0  0
    3.1802  -16.5838    6.0935 C   0  0  0  0  0  0  0  0  0  0  0  0
    4.5884  -15.6036    6.4499 Cl  0  0  0  0  0  0  0  0  0  0  0  0
    2.2193  -13.7058    4.8352 C   0  0  0  0  0  0  0  0  0  0  0  0
    2.3891  -12.5118    4.1718 N   0  0  0  0  0  0  0  0  0  0  0  0
    2.0881  -11.2401    4.8237 C   0  0  0  0  0  0  0  0  0  0  0  0
    2.8490  -12.5210    2.8705 C   0  0  0  0  0  0  0  0  0  0  0  0
    2.9998  -11.3421    2.2548 N   0  0  0  0  0  0  0  0  0  0  0  0
    3.7392   -7.9506   -0.4553 C   0  0  0  0  0  0  0  0  0  0  0  0
    3.5876   -6.5869   -0.2353 C   0  0  0  0  0  0  0  0  0  0  0  0
    3.8183   -5.4361   -1.1857 C   0  0  0  0  0  0  0  0  0  0  0  0
    4.2365   -2.6132   -2.1070 C   0  0  0  0  0  0  0  0  0  0  0  0
    5.6489   -2.0483   -1.8669 C   0  0  0  0  0  0  0  0  0  0  0  0
    4.3680    2.3417   -1.3811 H   0  0  0  0  0  0  0  0  0  0  0  0
    5.8106    1.9036   -0.4222 H   0  0  0  0  0  0  0  0  0  0  0  0
    4.1846    1.3401    0.0637 H   0  0  0  0  0  0  0  0  0  0  0  0
    5.0563    1.5781   -3.3395 H   0  0  0  0  0  0  0  0  0  0  0  0
    5.4845   -0.1084   -3.6504 H   0  0  0  0  0  0  0  0  0  0  0  0
    6.6534    0.9642   -2.8249 H   0  0  0  0  0  0  0  0  0  0  0  0
    6.6568   -0.5130   -0.7067 H   0  0  0  0  0  0  0  0  0  0  0  0
    4.7763   -0.3563    1.0228 H   0  0  0  0  0  0  0  0  0  0  0  0
    5.4906   -1.9482    0.8384 H   0  0  0  0  0  0  0  0  0  0  0  0
    2.8703   -1.0154   -0.4818 H   0  0  0  0  0  0  0  0  0  0  0  0
    2.9621   -2.0530    0.9450 H   0  0  0  0  0  0  0  0  0  0  0  0
    4.9800   -4.1836    0.1230 H   0  0  0  0  0  0  0  0  0  0  0  0
    2.0068   -4.2760    0.7846 H   0  0  0  0  0  0  0  0  0  0  0  0
    3.3709   -4.1266    1.9174 H   0  0  0  0  0  0  0  0  0  0  0  0
    2.5093   -6.6476    3.0037 H   0  0  0  0  0  0  0  0  0  0  0  0
    2.7794   -9.0908    2.6157 H   0  0  0  0  0  0  0  0  0  0  0  0
    3.9659  -10.4313   -0.6537 H   0  0  0  0  0  0  0  0  0  0  0  0
    3.8470  -14.5687    0.3799 H   0  0  0  0  0  0  0  0  0  0  0  0
    0.1132  -18.8317    5.3533 H   0  0  0  0  0  0  0  0  0  0  0  0
    1.7681  -19.5076    7.1069 H   0  0  0  0  0  0  0  0  0  0  0  0
    3.7433  -18.0426    7.5755 H   0  0  0  0  0  0  0  0  0  0  0  0
    1.8564  -13.6086    5.8602 H   0  0  0  0  0  0  0  0  0  0  0  0
    1.7340  -11.4419    5.8420 H   0  0  0  0  0  0  0  0  0  0  0  0
    1.3114  -10.6937    4.2691 H   0  0  0  0  0  0  0  0  0  0  0  0
    2.9849  -10.6052    4.8693 H   0  0  0  0  0  0  0  0  0  0  0  0
    4.0898   -8.3217   -1.4237 H   0  0  0  0  0  0  0  0  0  0  0  0
    2.9432   -5.3033   -1.8489 H   0  0  0  0  0  0  0  0  0  0  0  0
    4.7016   -5.5783   -1.8274 H   0  0  0  0  0  0  0  0  0  0  0  0
    3.6391   -1.8540   -2.6395 H   0  0  0  0  0  0  0  0  0  0  0  0
    4.2840   -3.4937   -2.7638 H   0  0  0  0  0  0  0  0  0  0  0  0
    6.1489   -1.8525   -2.8273 H   0  0  0  0  0  0  0  0  0  0  0  0
    6.2729   -2.8009   -1.3564 H   0  0  0  0  0  0  0  0  0  0  0  0
  1  2  1  0
  1 40  1  0
  1 41  1  0
  1 42  1  0
  2  3  1  0
  2  4  1  0
  3 43  1  0
  3 44  1  0
  3 45  1  0
  4  5  1  0
  4 39  1  0
  4 46  1  1
  5  6  1  0
  5 47  1  0
  5 48  1  0
  6  7  1  0
  6 49  1  0
  6 50  1  0
  7  8  1  0
  7 38  1  0
  8  9  1  0
  8 37  1  0
  8 51  1  1
  9 10  1  0
  9 52  1  0
  9 53  1  0
 10 11  1  0
 10 36  2  0
 11 12  2  0
 11 54  1  0
 12 13  1  0
 12 55  1  0
 13 14  1  0
 13 35  2  0
 14 15  1  0
 14 56  1  0
 15 16  2  0
 15 34  1  0
 16 17  1  0
 17 18  2  0
 17 57  1  0
 18 19  1  0
 18 33  1  0
 19 20  2  0
 19 21  1  0
 21 22  1  0
 21 30  2  0
 22 23  2  0
 22 28  1  0
 23 24  1  0
 23 25  1  0
 25 26  2  0
 25 58  1  0
 26 27  1  0
 26 59  1  0
 27 28  2  0
 27 60  1  0
 28 29  1  0
 30 31  1  0
 30 61  1  0
 31 32  1  0
 31 33  1  0
 32 62  1  0
 32 63  1  0
 32 64  1  0
 33 34  2  0
 35 36  1  0
 35 65  1  0
 36 37  1  0
 37 66  1  0
 37 67  1  0
 38 39  1  0
 38 68  1  0
 38 69  1  0
 39 70  1  0
 39 71  1  0
M  END

