
     RDKit          3D

 29 30  0  0  0  0  0  0  0  0999 V2000
    3.2259    3.1837    0.5705 N   0  0  0  0  0  0  0  0  0  0  0  0
    2.7918    1.9000    0.4926 C   0  0  0  0  0  0  0  0  0  0  0  0
    2.0208    1.3823    1.2816 O   0  0  0  0  0  0  0  0  0  0  0  0
    3.3546    1.1266   -0.7189 C   0  0  0  0  0  0  0  0  0  0  0  0
    4.7915    0.9075   -0.6836 N   0  0  0  0  0  0  0  0  0  0  0  0
    5.6893    1.8711   -1.0532 C   0  0  0  0  0  0  0  0  0  0  0  0
    5.3198    3.0001   -1.3893 O   0  0  0  0  0  0  0  0  0  0  0  0
    7.1147    1.4906   -1.0153 C   0  0  0  0  0  0  0  0  0  0  0  0
    8.1171    2.4397   -1.0184 C   0  0  0  0  0  0  0  0  0  0  0  0
    9.3390    1.8219   -0.9543 N   0  0  0  0  0  0  0  0  0  0  0  0
   10.2306    2.2989   -0.9389 H   0  0  0  0  0  0  0  0  0  0  0  0
    9.1698    0.4504   -0.9211 C   0  0  0  0  0  0  0  0  0  0  0  0
   10.1334   -0.5630   -0.8688 C   0  0  0  0  0  0  0  0  0  0  0  0
    9.6976   -1.8955   -0.8716 C   0  0  0  0  0  0  0  0  0  0  0  0
   10.6074   -2.9469   -0.8718 N   0  0  0  0  0  0  0  0  0  0  0  0
    8.3035   -2.1680   -0.9394 C   0  0  0  0  0  0  0  0  0  0  0  0
    7.3585   -1.1524   -0.9897 C   0  0  0  0  0  0  0  0  0  0  0  0
    7.7701    0.1949   -0.9639 C   0  0  0  0  0  0  0  0  0  0  0  0
    2.9391    3.7408    1.3667 H   0  0  0  0  0  0  0  0  0  0  0  0
    3.9135    3.5288   -0.1010 H   0  0  0  0  0  0  0  0  0  0  0  0
    3.1172    1.6815   -1.6404 H   0  0  0  0  0  0  0  0  0  0  0  0
    2.8429    0.1561   -0.7405 H   0  0  0  0  0  0  0  0  0  0  0  0
    5.1372    0.0876   -0.2007 H   0  0  0  0  0  0  0  0  0  0  0  0
    8.0170    3.5219   -1.0563 H   0  0  0  0  0  0  0  0  0  0  0  0
   11.2005   -0.3270   -0.8382 H   0  0  0  0  0  0  0  0  0  0  0  0
   11.5339   -2.7412   -0.5165 H   0  0  0  0  0  0  0  0  0  0  0  0
   10.2559   -3.8412   -0.5496 H   0  0  0  0  0  0  0  0  0  0  0  0
    7.9743   -3.2104   -0.9670 H   0  0  0  0  0  0  0  0  0  0  0  0
    6.3019   -1.4174   -1.0723 H   0  0  0  0  0  0  0  0  0  0  0  0
  1  2  1  0
  1 19  1  0
  1 20  1  0
  2  3  2  0
  2  4  1  0
  4  5  1  0
  4 21  1  0
  4 22  1  0
  5  6  1  0
  5 23  1  0
  6  7  2  0
  6  8  1  0
  8  9  2  0
  8 18  1  0
  9 10  1  0
  9 24  1  0
 10 11  1  0
 10 12  1  0
 12 13  1  0
 12 18  2  0
 13 14  2  0
 13 25  1  0
 14 15  1  0
 14 16  1  0
 15 26  1  0
 15 27  1  0
 16 17  2  0
 16 28  1  0
 17 18  1  0
 17 29  1  0
M  END

