
     RDKit          3D

 41 41  0  0  0  0  0  0  0  0999 V2000
    2.6217   -1.7627   -4.2229 C   0  0  0  0  0  0  0  0  0  0  0  0
    3.2673   -3.0184   -3.6384 C   0  0  0  0  0  0  0  0  0  0  0  0
    4.6540   -2.7467   -3.0234 C   0  0  0  0  0  0  0  0  0  0  0  0
    5.3526   -3.9850   -2.5425 C   0  0  0  0  0  0  0  0  0  0  0  0
    5.8464   -4.9119   -3.3423 N   0  0  0  0  0  0  0  0  0  0  0  0
    6.3798   -5.8765   -2.5319 C   0  0  0  0  0  0  0  0  0  0  0  0
    6.2105   -5.5346   -1.2104 C   0  0  0  0  0  0  0  0  0  0  0  0
    5.5493   -4.3170   -1.2189 N   0  0  0  0  0  0  0  0  0  0  0  0
    5.1214   -3.5919   -0.0287 C   0  0  0  0  0  0  0  0  0  0  0  0
    3.6089   -3.6402    0.2294 C   0  0  0  0  0  0  0  0  0  0  0  0
    3.0016   -5.0484    0.2414 C   0  0  1  0  0  0  0  0  0  0  0  0
    3.3622   -5.9638    1.3362 N   0  0  0  0  0  0  0  0  0  0  0  0
    3.5525   -5.4439    2.7040 C   0  0  1  0  0  0  0  0  0  0  0  0
    2.2506   -4.8910    3.2916 C   0  0  0  0  0  0  0  0  0  0  0  0
    4.1150   -6.5724    3.5705 C   0  0  0  0  0  0  0  0  0  0  0  0
    1.4631   -5.0073    0.0720 C   0  0  0  0  0  0  0  0  0  0  0  0
    0.8813   -4.1450   -0.5358 O   0  0  0  0  0  0  0  0  0  0  0  0
    0.8600   -6.0662    0.6110 O   0  0  0  0  0  0  0  0  0  0  0  0
    1.6378   -1.9886   -4.6629 H   0  0  0  0  0  0  0  0  0  0  0  0
    3.2490   -1.3190   -5.0145 H   0  0  0  0  0  0  0  0  0  0  0  0
    2.4677   -0.9903   -3.4504 H   0  0  0  0  0  0  0  0  0  0  0  0
    3.3897   -3.7847   -4.4216 H   0  0  0  0  0  0  0  0  0  0  0  0
    2.5991   -3.4569   -2.8771 H   0  0  0  0  0  0  0  0  0  0  0  0
    4.5666   -2.0082   -2.2095 H   0  0  0  0  0  0  0  0  0  0  0  0
    5.2963   -2.2860   -3.7927 H   0  0  0  0  0  0  0  0  0  0  0  0
    6.8680   -6.7634   -2.9355 H   0  0  0  0  0  0  0  0  0  0  0  0
    6.5233   -6.0102   -0.2835 H   0  0  0  0  0  0  0  0  0  0  0  0
    5.4428   -2.5412   -0.1089 H   0  0  0  0  0  0  0  0  0  0  0  0
    5.6760   -4.0207    0.8195 H   0  0  0  0  0  0  0  0  0  0  0  0
    3.0759   -3.0739   -0.5469 H   0  0  0  0  0  0  0  0  0  0  0  0
    3.4028   -3.1130    1.1748 H   0  0  0  0  0  0  0  0  0  0  0  0
    3.3372   -5.5512   -0.6834 H   0  0  0  0  0  0  0  0  0  0  0  0
    4.1635   -6.5308    1.0687 H   0  0  0  0  0  0  0  0  0  0  0  0
    4.2961   -4.6201    2.7076 H   0  0  0  0  0  0  0  0  0  0  0  0
    1.4802   -5.6747    3.3624 H   0  0  0  0  0  0  0  0  0  0  0  0
    1.8345   -4.0668    2.6927 H   0  0  0  0  0  0  0  0  0  0  0  0
    2.4351   -4.4986    4.3037 H   0  0  0  0  0  0  0  0  0  0  0  0
    3.4077   -7.4159    3.6201 H   0  0  0  0  0  0  0  0  0  0  0  0
    4.3035   -6.2191    4.5956 H   0  0  0  0  0  0  0  0  0  0  0  0
    5.0699   -6.9512    3.1687 H   0  0  0  0  0  0  0  0  0  0  0  0
    1.5921   -6.5539    1.0646 H   0  0  0  0  0  0  0  0  0  0  0  0
  1  2  1  0
  1 19  1  0
  1 20  1  0
  1 21  1  0
  2  3  1  0
  2 22  1  0
  2 23  1  0
  3  4  1  0
  3 24  1  0
  3 25  1  0
  4  5  2  0
  4  8  1  0
  5  6  1  0
  6  7  2  0
  6 26  1  0
  7  8  1  0
  7 27  1  0
  8  9  1  0
  9 10  1  0
  9 28  1  0
  9 29  1  0
 10 11  1  0
 10 30  1  0
 10 31  1  0
 11 12  1  0
 11 16  1  0
 11 32  1  6
 12 13  1  0
 12 33  1  0
 13 14  1  0
 13 15  1  0
 13 34  1  6
 14 35  1  0
 14 36  1  0
 14 37  1  0
 15 38  1  0
 15 39  1  0
 15 40  1  0
 16 17  2  0
 16 18  1  0
 18 41  1  0
M  END

