
     RDKit          3D

 43 45  0  0  0  0  0  0  0  0999 V2000
    5.1193    2.8069    0.7793 C   0  0  0  0  0  0  0  0  0  0  0  0
    4.6690    1.4315    1.1898 C   0  0  0  0  0  0  0  0  0  0  0  0
    4.4135    1.0961    2.5285 C   0  0  0  0  0  0  0  0  0  0  0  0
    3.9983   -0.2121    2.8025 C   0  0  0  0  0  0  0  0  0  0  0  0
    3.6916   -0.6896    4.1948 C   0  0  0  0  0  0  0  0  0  0  0  0
    3.8529   -1.1038    1.8122 N   0  0  0  0  0  0  0  0  0  0  0  0
    4.1216   -0.6829    0.5836 C   0  0  0  0  0  0  0  0  0  0  0  0
    3.9674   -1.5430   -0.4521 O   0  0  0  0  0  0  0  0  0  0  0  0
    3.6816   -2.8821   -0.2562 C   0  0  0  0  0  0  0  0  0  0  0  0
    4.5612   -3.7363    0.4145 C   0  0  0  0  0  0  0  0  0  0  0  0
    4.2441   -5.0927    0.4869 C   0  0  0  0  0  0  0  0  0  0  0  0
    3.0837   -5.6118   -0.0950 C   0  0  0  0  0  0  0  0  0  0  0  0
    2.2137   -4.7421   -0.7727 C   0  0  0  0  0  0  0  0  0  0  0  0
    1.0275   -5.1704   -1.4044 N   0  0  0  0  0  0  0  0  0  0  0  0
    0.4745   -6.4247   -1.4341 C   0  0  0  0  0  0  0  0  0  0  0  0
    0.9531   -7.4247   -0.9384 O   0  0  0  0  0  0  0  0  0  0  0  0
   -0.7896   -6.5091   -2.2739 C   0  0  0  0  0  0  0  0  0  0  0  0
   -0.7032   -6.3295   -3.6615 C   0  0  0  0  0  0  0  0  0  0  0  0
   -1.8097   -6.5513   -4.4880 C   0  0  0  0  0  0  0  0  0  0  0  0
   -3.0249   -6.9683   -3.9391 C   0  0  0  0  0  0  0  0  0  0  0  0
   -3.1351   -7.1531   -2.5600 C   0  0  0  0  0  0  0  0  0  0  0  0
   -2.0271   -6.9110   -1.7494 C   0  0  0  0  0  0  0  0  0  0  0  0
   -2.2143   -7.0304   -0.2877 N   0  0  0  0  0  0  0  0  0  0  0  0
   -1.5010   -6.3417    0.4227 O   0  0  0  0  0  0  0  0  0  0  0  0
   -3.0910   -7.7794    0.1070 O   0  0  0  0  0  0  0  0  0  0  0  0
    2.5201   -3.3720   -0.8469 C   0  0  0  0  0  0  0  0  0  0  0  0
    4.5209    0.5302    0.2134 N   0  0  0  0  0  0  0  0  0  0  0  0
    5.2217    3.4841    1.6385 H   0  0  0  0  0  0  0  0  0  0  0  0
    4.4001    3.2382    0.0649 H   0  0  0  0  0  0  0  0  0  0  0  0
    6.0855    2.7427    0.2538 H   0  0  0  0  0  0  0  0  0  0  0  0
    4.5342    1.8293    3.3273 H   0  0  0  0  0  0  0  0  0  0  0  0
    3.8227    0.1042    4.9431 H   0  0  0  0  0  0  0  0  0  0  0  0
    4.3446   -1.5385    4.4532 H   0  0  0  0  0  0  0  0  0  0  0  0
    2.6564   -1.0634    4.2430 H   0  0  0  0  0  0  0  0  0  0  0  0
    5.4702   -3.3415    0.8687 H   0  0  0  0  0  0  0  0  0  0  0  0
    4.9204   -5.7729    1.0108 H   0  0  0  0  0  0  0  0  0  0  0  0
    2.8440   -6.6700   -0.0314 H   0  0  0  0  0  0  0  0  0  0  0  0
    0.4650   -4.4331   -1.8133 H   0  0  0  0  0  0  0  0  0  0  0  0
    0.2535   -6.0343   -4.0996 H   0  0  0  0  0  0  0  0  0  0  0  0
   -1.7163   -6.4064   -5.5669 H   0  0  0  0  0  0  0  0  0  0  0  0
   -3.8898   -7.1469   -4.5817 H   0  0  0  0  0  0  0  0  0  0  0  0
   -4.0672   -7.4727   -2.0939 H   0  0  0  0  0  0  0  0  0  0  0  0
    1.8642   -2.6717   -1.3696 H   0  0  0  0  0  0  0  0  0  0  0  0
  1  2  1  0
  1 28  1  0
  1 29  1  0
  1 30  1  0
  2  3  2  0
  2 27  1  0
  3  4  1  0
  3 31  1  0
  4  5  1  0
  4  6  2  0
  5 32  1  0
  5 33  1  0
  5 34  1  0
  6  7  1  0
  7  8  1  0
  7 27  2  0
  8  9  1  0
  9 10  2  0
  9 26  1  0
 10 11  1  0
 10 35  1  0
 11 12  2  0
 11 36  1  0
 12 13  1  0
 12 37  1  0
 13 14  1  0
 13 26  2  0
 14 15  1  0
 14 38  1  0
 15 16  2  0
 15 17  1  0
 17 18  2  0
 17 22  1  0
 18 19  1  0
 18 39  1  0
 19 20  2  0
 19 40  1  0
 20 21  1  0
 20 41  1  0
 21 22  2  0
 21 42  1  0
 22 23  1  0
 23 24  2  0
 23 25  1  0
 26 43  1  0
M  CHG  2  23   1  25  -1
M  END

