
     RDKit          3D

 43 45  0  0  0  0  0  0  0  0999 V2000
   -0.6750    1.7568    1.5258 C   0  0  0  0  0  0  0  0  0  0  0  0
   -0.9851    1.0382    2.8374 C   0  0  0  0  0  0  0  0  0  0  0  0
    0.1546    0.3001    3.3779 N   0  0  0  0  0  0  0  0  0  0  0  0
    0.3845   -1.0466    3.2657 C   0  0  0  0  0  0  0  0  0  0  0  0
    1.5198   -1.4064    3.8203 N   0  0  0  0  0  0  0  0  0  0  0  0
    2.0550   -0.2475    4.3059 C   0  0  0  0  0  0  0  0  0  0  0  0
    3.5639   -0.1755    5.2533 S   0  0  1  0  0  0  0  0  0  0  0  0
    3.9314    1.2431    5.2558 O   0  0  0  0  0  0  0  0  0  0  0  0
    3.3538   -0.9170    6.4957 O   0  0  0  0  0  0  0  0  0  0  0  0
    4.7225   -1.0034    4.3953 N   0  0  0  0  0  0  0  0  0  0  0  0
    4.9336   -2.4370    4.5928 C   0  0  0  0  0  0  0  0  0  0  0  0
    4.5436   -3.2380    3.3441 C   0  0  0  0  0  0  0  0  0  0  0  0
    5.2083   -2.6953    2.0654 C   0  0  2  0  0  0  0  0  0  0  0  0
    6.6295   -3.0052    2.0677 N   0  0  0  0  0  0  0  0  0  0  0  0
    7.4504   -3.0800    0.9801 C   0  0  0  0  0  0  0  0  0  0  0  0
    7.0194   -2.8708   -0.3540 C   0  0  0  0  0  0  0  0  0  0  0  0
    7.9738   -3.0054   -1.3452 C   0  0  0  0  0  0  0  0  0  0  0  0
    9.2847   -3.3282   -0.9645 C   0  0  0  0  0  0  0  0  0  0  0  0
    9.6293   -3.5083    0.3103 N   0  0  0  0  0  0  0  0  0  0  0  0
    8.7354   -3.3887    1.2672 N   0  0  0  0  0  0  0  0  0  0  0  0
    4.9259   -1.1788    1.9338 C   0  0  0  0  0  0  0  0  0  0  0  0
    5.3281   -0.4156    3.2004 C   0  0  0  0  0  0  0  0  0  0  0  0
    1.2336    0.8290    4.0445 C   0  0  0  0  0  0  0  0  0  0  0  0
   -1.5700    2.2884    1.1671 H   0  0  0  0  0  0  0  0  0  0  0  0
   -0.3632    1.0437    0.7470 H   0  0  0  0  0  0  0  0  0  0  0  0
    0.1302    2.4962    1.6556 H   0  0  0  0  0  0  0  0  0  0  0  0
   -1.8031    0.3147    2.7001 H   0  0  0  0  0  0  0  0  0  0  0  0
   -1.3199    1.7539    3.6045 H   0  0  0  0  0  0  0  0  0  0  0  0
   -0.3227   -1.7115    2.7684 H   0  0  0  0  0  0  0  0  0  0  0  0
    4.3510   -2.7574    5.4652 H   0  0  0  0  0  0  0  0  0  0  0  0
    5.9984   -2.5942    4.8526 H   0  0  0  0  0  0  0  0  0  0  0  0
    3.4513   -3.1709    3.2258 H   0  0  0  0  0  0  0  0  0  0  0  0
    4.8069   -4.3000    3.4796 H   0  0  0  0  0  0  0  0  0  0  0  0
    4.7509   -3.2105    1.2024 H   0  0  0  0  0  0  0  0  0  0  0  0
    7.1051   -3.1983    2.9431 H   0  0  0  0  0  0  0  0  0  0  0  0
    5.9857   -2.6162   -0.5905 H   0  0  0  0  0  0  0  0  0  0  0  0
    7.7173   -2.8617   -2.3979 H   0  0  0  0  0  0  0  0  0  0  0  0
   10.0872   -3.4453   -1.6982 H   0  0  0  0  0  0  0  0  0  0  0  0
    3.8485   -1.0394    1.7446 H   0  0  0  0  0  0  0  0  0  0  0  0
    5.4687   -0.7654    1.0680 H   0  0  0  0  0  0  0  0  0  0  0  0
    5.0415    0.6430    3.1463 H   0  0  0  0  0  0  0  0  0  0  0  0
    6.4266   -0.4407    3.3205 H   0  0  0  0  0  0  0  0  0  0  0  0
    1.3358    1.8833    4.2854 H   0  0  0  0  0  0  0  0  0  0  0  0
  1  2  1  0
  1 24  1  0
  1 25  1  0
  1 26  1  0
  2  3  1  0
  2 27  1  0
  2 28  1  0
  3  4  1  0
  3 23  1  0
  4  5  2  0
  4 29  1  0
  5  6  1  0
  7  6  1  6
  6 23  2  0
  7  8  2  0
  7  9  2  0
  7 10  1  0
 10 11  1  0
 10 22  1  0
 11 12  1  0
 11 30  1  0
 11 31  1  0
 12 13  1  0
 12 32  1  0
 12 33  1  0
 13 14  1  0
 13 21  1  0
 13 34  1  6
 14 15  1  0
 14 35  1  0
 15 16  2  0
 15 20  1  0
 16 17  1  0
 16 36  1  0
 17 18  2  0
 17 37  1  0
 18 19  1  0
 18 38  1  0
 19 20  2  0
 21 22  1  0
 21 39  1  0
 21 40  1  0
 22 41  1  0
 22 42  1  0
 23 43  1  0
M  END

