
     RDKit          3D

 55 58  0  0  0  0  0  0  0  0999 V2000
    2.9178   -2.0463   -2.1488 C   0  0  0  0  0  0  0  0  0  0  0  0
    2.5455   -1.8047   -0.8900 C   0  0  0  0  0  0  0  0  0  0  0  0
    3.3767   -1.1959    0.2378 C   0  0  1  0  0  0  0  0  0  0  0  0
    2.8021    0.2206    0.4951 C   0  0  0  0  0  0  0  0  0  0  0  0
    3.1538   -2.0254    1.5296 C   0  0  0  0  0  0  0  0  0  0  0  0
    4.8613   -1.1265   -0.1096 C   0  0  0  0  0  0  0  0  0  0  0  0
    5.4996    0.0984   -0.2464 N   0  0  0  0  0  0  0  0  0  0  0  0
    5.0493    0.9962   -0.1474 H   0  0  0  0  0  0  0  0  0  0  0  0
    6.8206   -0.0832   -0.5825 C   0  0  0  0  0  0  0  0  0  0  0  0
    7.8350    0.8514   -0.8305 C   0  0  0  0  0  0  0  0  0  0  0  0
    9.0939    0.3622   -1.1711 C   0  0  0  0  0  0  0  0  0  0  0  0
    9.3345   -1.0258   -1.2657 C   0  0  0  0  0  0  0  0  0  0  0  0
    8.3238   -1.9504   -1.0170 C   0  0  0  0  0  0  0  0  0  0  0  0
    7.0402   -1.4863   -0.6642 C   0  0  0  0  0  0  0  0  0  0  0  0
    5.7867   -2.1317   -0.3541 C   0  0  0  0  0  0  0  0  0  0  0  0
    5.5572   -3.6139   -0.3513 C   0  0  0  0  0  0  0  0  0  0  0  0
    6.3446   -4.4383    0.7101 C   0  0  1  0  0  0  0  0  0  0  0  0
    7.4223   -4.2858    0.5440 H   0  0  0  0  0  0  0  0  0  0  0  0
    6.1085   -4.0838    2.1850 C   0  0  0  0  0  0  0  0  0  0  0  0
    5.6684   -4.8398    3.0142 O   0  0  0  0  0  0  0  0  0  0  0  0
    6.5189   -2.8383    2.4543 O   0  0  0  0  0  0  0  0  0  0  0  0
    6.4170   -2.4156    3.8148 C   0  0  0  0  0  0  0  0  0  0  0  0
    6.1231   -5.8624    0.5288 N   0  0  0  0  0  0  0  0  0  0  0  0
    7.1869   -6.7751    0.4077 C   0  0  0  0  0  0  0  0  0  0  0  0
    8.3566   -6.4755    0.3456 O   0  0  0  0  0  0  0  0  0  0  0  0
    6.5578   -8.1296    0.3718 C   0  0  0  0  0  0  0  0  0  0  0  0
    7.1370   -9.3868    0.2442 C   0  0  0  0  0  0  0  0  0  0  0  0
    6.2786  -10.4966    0.2476 C   0  0  0  0  0  0  0  0  0  0  0  0
    4.8904  -10.3371    0.3738 C   0  0  0  0  0  0  0  0  0  0  0  0
    4.3163   -9.0630    0.5001 C   0  0  0  0  0  0  0  0  0  0  0  0
    5.1753   -7.9705    0.4979 C   0  0  0  0  0  0  0  0  0  0  0  0
    4.8751   -6.5085    0.6097 C   0  0  0  0  0  0  0  0  0  0  0  0
    3.7986   -5.9703    0.7190 O   0  0  0  0  0  0  0  0  0  0  0  0
    2.2076   -2.4555   -2.8726 H   0  0  0  0  0  0  0  0  0  0  0  0
    3.9359   -1.8553   -2.4995 H   0  0  0  0  0  0  0  0  0  0  0  0
    1.5092   -2.0211   -0.5983 H   0  0  0  0  0  0  0  0  0  0  0  0
    1.7300    0.1526    0.7328 H   0  0  0  0  0  0  0  0  0  0  0  0
    2.8945    0.8662   -0.3926 H   0  0  0  0  0  0  0  0  0  0  0  0
    3.2985    0.7067    1.3514 H   0  0  0  0  0  0  0  0  0  0  0  0
    2.0859   -2.0186    1.8024 H   0  0  0  0  0  0  0  0  0  0  0  0
    3.7207   -1.5915    2.3670 H   0  0  0  0  0  0  0  0  0  0  0  0
    3.4527   -3.0757    1.4142 H   0  0  0  0  0  0  0  0  0  0  0  0
    7.6462    1.9261   -0.7628 H   0  0  0  0  0  0  0  0  0  0  0  0
    9.9074    1.0641   -1.3715 H   0  0  0  0  0  0  0  0  0  0  0  0
   10.3322   -1.3778   -1.5398 H   0  0  0  0  0  0  0  0  0  0  0  0
    8.5310   -3.0204   -1.1024 H   0  0  0  0  0  0  0  0  0  0  0  0
    5.8744   -4.0302   -1.3238 H   0  0  0  0  0  0  0  0  0  0  0  0
    4.4910   -3.8464   -0.2592 H   0  0  0  0  0  0  0  0  0  0  0  0
    6.7823   -1.3818    3.8397 H   0  0  0  0  0  0  0  0  0  0  0  0
    7.0320   -3.0546    4.4664 H   0  0  0  0  0  0  0  0  0  0  0  0
    5.3745   -2.4648    4.1631 H   0  0  0  0  0  0  0  0  0  0  0  0
    8.2191   -9.4979    0.1469 H   0  0  0  0  0  0  0  0  0  0  0  0
    6.6956  -11.5022    0.1515 H   0  0  0  0  0  0  0  0  0  0  0  0
    4.2480  -11.2212    0.3741 H   0  0  0  0  0  0  0  0  0  0  0  0
    3.2374   -8.9258    0.5996 H   0  0  0  0  0  0  0  0  0  0  0  0
  1  2  2  0
  1 34  1  0
  1 35  1  0
  3  2  1  6
  2 36  1  0
  3  4  1  0
  3  5  1  0
  3  6  1  0
  4 37  1  0
  4 38  1  0
  4 39  1  0
  5 40  1  0
  5 41  1  0
  5 42  1  0
  6  7  1  0
  6 15  2  0
  7  8  1  0
  7  9  1  0
  9 10  2  0
  9 14  1  0
 10 11  1  0
 10 43  1  0
 11 12  2  0
 11 44  1  0
 12 13  1  0
 12 45  1  0
 13 14  2  0
 13 46  1  0
 14 15  1  0
 15 16  1  0
 16 17  1  0
 16 47  1  0
 16 48  1  0
 17 18  1  6
 17 19  1  0
 17 23  1  0
 19 20  2  0
 19 21  1  0
 21 22  1  0
 22 49  1  0
 22 50  1  0
 22 51  1  0
 23 24  1  0
 23 32  1  0
 24 25  2  0
 24 26  1  0
 26 27  1  0
 26 31  2  0
 27 28  2  0
 27 52  1  0
 28 29  1  0
 28 53  1  0
 29 30  2  0
 29 54  1  0
 30 31  1  0
 30 55  1  0
 31 32  1  0
 32 33  2  0
M  END

