
     RDKit          3D

 37 38  0  0  0  0  0  0  0  0999 V2000
    1.2125   -0.4972    0.6866 N   0  0  0  0  0  0  0  0  0  0  0  0
    2.5129   -0.3471    0.2831 C   0  0  0  0  0  0  0  0  0  0  0  0
    2.8378   -0.1156   -1.0703 C   0  0  0  0  0  0  0  0  0  0  0  0
    4.1595    0.0653   -1.4597 C   0  0  0  0  0  0  0  0  0  0  0  0
    5.1989    0.0514   -0.5213 C   0  0  0  0  0  0  0  0  0  0  0  0
    6.8818    0.1845   -1.1426 S   0  0  1  0  0  0  0  0  0  0  0  0
    7.6889   -0.7552   -0.3391 O   0  0  0  0  0  0  0  0  0  0  0  0
    6.7793    0.0467   -2.5976 O   0  0  0  0  0  0  0  0  0  0  0  0
    7.4030    1.7300   -0.7775 N   0  0  0  0  0  0  0  0  0  0  0  0
    7.2068    2.7787   -1.7836 C   0  0  0  0  0  0  0  0  0  0  0  0
    7.1610    4.1293   -1.0694 C   0  0  0  0  0  0  0  0  0  0  0  0
    8.2881    4.3241   -0.2441 O   0  0  0  0  0  0  0  0  0  0  0  0
    8.3860    3.3231    0.7537 C   0  0  0  0  0  0  0  0  0  0  0  0
    8.5399    1.9263    0.1436 C   0  0  2  0  0  0  0  0  0  0  0  0
    9.9122    1.7408   -0.5371 C   0  0  0  0  0  0  0  0  0  0  0  0
    9.9894    0.6093   -1.3613 O   0  0  0  0  0  0  0  0  0  0  0  0
    4.8991   -0.1840    0.8342 C   0  0  0  0  0  0  0  0  0  0  0  0
    5.9341   -0.1820    1.9371 C   0  0  0  0  0  0  0  0  0  0  0  0
    6.5726    0.7837    2.2575 O   0  0  0  0  0  0  0  0  0  0  0  0
    6.0243   -1.3339    2.6282 O   0  0  0  0  0  0  0  0  0  0  0  0
    3.5723   -0.3980    1.2173 C   0  0  0  0  0  0  0  0  0  0  0  0
    0.4907   -0.6423   -0.0063 H   0  0  0  0  0  0  0  0  0  0  0  0
    1.0124   -0.8362    1.6178 H   0  0  0  0  0  0  0  0  0  0  0  0
    2.0439   -0.0925   -1.8214 H   0  0  0  0  0  0  0  0  0  0  0  0
    4.4098    0.1959   -2.5135 H   0  0  0  0  0  0  0  0  0  0  0  0
    6.2600    2.6078   -2.3156 H   0  0  0  0  0  0  0  0  0  0  0  0
    8.0149    2.7588   -2.5361 H   0  0  0  0  0  0  0  0  0  0  0  0
    6.2302    4.1914   -0.4682 H   0  0  0  0  0  0  0  0  0  0  0  0
    7.1542    4.9457   -1.8080 H   0  0  0  0  0  0  0  0  0  0  0  0
    7.4905    3.3269    1.4028 H   0  0  0  0  0  0  0  0  0  0  0  0
    9.2665    3.5699    1.3663 H   0  0  0  0  0  0  0  0  0  0  0  0
    8.4303    1.1968    0.9555 H   0  0  0  0  0  0  0  0  0  0  0  0
   10.6749    1.7313    0.2709 H   0  0  0  0  0  0  0  0  0  0  0  0
   10.1348    2.6160   -1.1684 H   0  0  0  0  0  0  0  0  0  0  0  0
    9.5858   -0.1428   -0.8984 H   0  0  0  0  0  0  0  0  0  0  0  0
    5.5438   -2.0350    2.1631 H   0  0  0  0  0  0  0  0  0  0  0  0
    3.3436   -0.5791    2.2715 H   0  0  0  0  0  0  0  0  0  0  0  0
  1  2  1  0
  1 22  1  0
  1 23  1  0
  2  3  2  0
  2 21  1  0
  3  4  1  0
  3 24  1  0
  4  5  2  0
  4 25  1  0
  6  5  1  1
  5 17  1  0
  6  7  2  0
  6  8  2  0
  6  9  1  0
  9 10  1  0
  9 14  1  0
 10 11  1  0
 10 26  1  0
 10 27  1  0
 11 12  1  0
 11 28  1  0
 11 29  1  0
 12 13  1  0
 13 14  1  0
 13 30  1  0
 13 31  1  0
 14 15  1  0
 14 32  1  1
 15 16  1  0
 15 33  1  0
 15 34  1  0
 16 35  1  0
 17 18  1  0
 17 21  2  0
 18 19  2  0
 18 20  1  0
 20 36  1  0
 21 37  1  0
M  END

