
     RDKit          3D

 58 61  0  0  0  0  0  0  0  0999 V2000
    2.2696    2.1942   -1.3357 C   0  0  0  0  0  0  0  0  0  0  0  0
    2.5280    3.3458   -0.4912 N   0  0  0  0  0  0  0  0  0  0  0  0
    1.3431    4.1559   -0.2908 C   0  0  0  0  0  0  0  0  0  0  0  0
    3.1924    2.9993    0.7558 C   0  0  0  0  0  0  0  0  0  0  0  0
    4.6251    2.5310    0.5777 C   0  0  0  0  0  0  0  0  0  0  0  0
    5.4817    3.1739   -0.3288 C   0  0  0  0  0  0  0  0  0  0  0  0
    6.8135    2.7800   -0.4569 C   0  0  0  0  0  0  0  0  0  0  0  0
    7.3408    1.7256    0.3129 C   0  0  0  0  0  0  0  0  0  0  0  0
    8.7808    1.3475    0.1795 C   0  0  0  0  0  0  0  0  0  0  0  0
    9.7550    2.3404    0.4063 C   0  0  0  0  0  0  0  0  0  0  0  0
   11.1174    2.0633    0.3067 C   0  0  0  0  0  0  0  0  0  0  0  0
   11.5385    0.7741   -0.0330 C   0  0  0  0  0  0  0  0  0  0  0  0
   10.5868   -0.2148   -0.2761 C   0  0  0  0  0  0  0  0  0  0  0  0
    9.2099    0.0480   -0.1804 C   0  0  0  0  0  0  0  0  0  0  0  0
    8.2420   -1.0773   -0.4959 C   0  0  0  0  0  0  0  0  0  0  0  0
    8.1527   -2.0499    0.5865 N   0  0  0  0  0  0  0  0  0  0  0  0
    8.1938   -3.3903    0.3846 C   0  0  0  0  0  0  0  0  0  0  0  0
    8.3477   -3.9356   -0.6959 O   0  0  0  0  0  0  0  0  0  0  0  0
    8.0199   -4.2241    1.6720 C   0  0  0  0  0  0  0  0  0  0  0  0
    6.6356   -4.2435    2.1598 N   0  0  0  0  0  0  0  0  0  0  0  0
    5.7903   -5.2756    1.7992 C   0  0  0  0  0  0  0  0  0  0  0  0
    4.5683   -5.4065    2.1773 N   0  0  0  0  0  0  0  0  0  0  0  0
    4.0502   -4.4368    3.0146 C   0  0  0  0  0  0  0  0  0  0  0  0
    2.7152   -4.5499    3.4642 C   0  0  0  0  0  0  0  0  0  0  0  0
    2.1741   -3.5924    4.3071 C   0  0  0  0  0  0  0  0  0  0  0  0
    2.9625   -2.5021    4.7139 C   0  0  0  0  0  0  0  0  0  0  0  0
    2.4186   -1.5905    5.5295 F   0  0  0  0  0  0  0  0  0  0  0  0
    4.2715   -2.3510    4.2950 C   0  0  0  0  0  0  0  0  0  0  0  0
    4.8197   -3.3244    3.4395 C   0  0  0  0  0  0  0  0  0  0  0  0
    6.2021   -3.1860    2.9702 C   0  0  0  0  0  0  0  0  0  0  0  0
    6.9470   -2.2462    3.2343 O   0  0  0  0  0  0  0  0  0  0  0  0
    6.4806    1.0871    1.2229 C   0  0  0  0  0  0  0  0  0  0  0  0
    5.1456    1.4820    1.3462 C   0  0  0  0  0  0  0  0  0  0  0  0
    1.8701    2.5217   -2.3087 H   0  0  0  0  0  0  0  0  0  0  0  0
    1.5351    1.4838   -0.8888 H   0  0  0  0  0  0  0  0  0  0  0  0
    3.2014    1.6400   -1.5225 H   0  0  0  0  0  0  0  0  0  0  0  0
    0.9311    4.4675   -1.2639 H   0  0  0  0  0  0  0  0  0  0  0  0
    1.5942    5.0663    0.2766 H   0  0  0  0  0  0  0  0  0  0  0  0
    0.5315    3.6261    0.2615 H   0  0  0  0  0  0  0  0  0  0  0  0
    2.6268    2.2319    1.3350 H   0  0  0  0  0  0  0  0  0  0  0  0
    3.2006    3.9058    1.3874 H   0  0  0  0  0  0  0  0  0  0  0  0
    5.0817    3.9815   -0.9464 H   0  0  0  0  0  0  0  0  0  0  0  0
    7.4597    3.2882   -1.1775 H   0  0  0  0  0  0  0  0  0  0  0  0
    9.4252    3.3442    0.6852 H   0  0  0  0  0  0  0  0  0  0  0  0
   11.8498    2.8519    0.4976 H   0  0  0  0  0  0  0  0  0  0  0  0
   12.6035    0.5433   -0.1170 H   0  0  0  0  0  0  0  0  0  0  0  0
   10.9113   -1.2198   -0.5615 H   0  0  0  0  0  0  0  0  0  0  0  0
    8.5807   -1.6364   -1.3796 H   0  0  0  0  0  0  0  0  0  0  0  0
    7.2443   -0.6724   -0.7264 H   0  0  0  0  0  0  0  0  0  0  0  0
    7.9763   -1.7271    1.5370 H   0  0  0  0  0  0  0  0  0  0  0  0
    8.6527   -3.8304    2.4795 H   0  0  0  0  0  0  0  0  0  0  0  0
    8.3203   -5.2502    1.4314 H   0  0  0  0  0  0  0  0  0  0  0  0
    6.2411   -6.0224    1.1354 H   0  0  0  0  0  0  0  0  0  0  0  0
    2.1312   -5.4087    3.1294 H   0  0  0  0  0  0  0  0  0  0  0  0
    1.1454   -3.6620    4.6667 H   0  0  0  0  0  0  0  0  0  0  0  0
    4.8748   -1.5013    4.6172 H   0  0  0  0  0  0  0  0  0  0  0  0
    6.8517    0.2807    1.8597 H   0  0  0  0  0  0  0  0  0  0  0  0
    4.4993    0.9640    2.0612 H   0  0  0  0  0  0  0  0  0  0  0  0
  1  2  1  0
  1 34  1  0
  1 35  1  0
  1 36  1  0
  2  3  1  0
  2  4  1  0
  3 37  1  0
  3 38  1  0
  3 39  1  0
  4  5  1  0
  4 40  1  0
  4 41  1  0
  5  6  2  0
  5 33  1  0
  6  7  1  0
  6 42  1  0
  7  8  2  0
  7 43  1  0
  8  9  1  0
  8 32  1  0
  9 10  2  0
  9 14  1  0
 10 11  1  0
 10 44  1  0
 11 12  2  0
 11 45  1  0
 12 13  1  0
 12 46  1  0
 13 14  2  0
 13 47  1  0
 14 15  1  0
 15 16  1  0
 15 48  1  0
 15 49  1  0
 16 17  1  0
 16 50  1  0
 17 18  2  0
 17 19  1  0
 19 20  1  0
 19 51  1  0
 19 52  1  0
 20 21  1  0
 20 30  1  0
 21 22  2  0
 21 53  1  0
 22 23  1  0
 23 24  2  0
 23 29  1  0
 24 25  1  0
 24 54  1  0
 25 26  2  0
 25 55  1  0
 26 27  1  0
 26 28  1  0
 28 29  2  0
 28 56  1  0
 29 30  1  0
 30 31  2  0
 32 33  2  0
 32 57  1  0
 33 58  1  0
M  END

