
     RDKit          3D

 46 47  0  0  0  0  0  0  0  0999 V2000
    1.0232   -0.1870   -0.6345 C   0  0  0  0  0  0  0  0  0  0  0  0
    2.4990   -0.0479   -0.3400 C   0  0  0  0  0  0  0  0  0  0  0  0
    3.1215    1.1355   -0.1274 C   0  0  0  0  0  0  0  0  0  0  0  0
    2.3262    2.4359   -0.0470 C   0  0  0  0  0  0  0  0  0  0  0  0
    1.3660    2.5578    1.1643 C   0  0  1  0  0  0  0  0  0  0  0  0
    2.0134    2.2783    2.3889 O   0  0  0  0  0  0  0  0  0  0  0  0
    0.6412    3.9074    1.1973 C   0  0  0  0  0  0  0  0  0  0  0  0
    0.5722    4.6469    2.3872 C   0  0  0  0  0  0  0  0  0  0  0  0
   -0.1009    5.8705    2.4369 C   0  0  0  0  0  0  0  0  0  0  0  0
   -0.7270    6.3678    1.2971 C   0  0  0  0  0  0  0  0  0  0  0  0
   -1.3549    7.6082    1.2961 O   0  0  0  0  0  0  0  0  0  0  0  0
   -2.6473    7.6691    1.6973 C   0  0  1  0  0  0  0  0  0  0  0  0
   -3.4351    6.8355    1.0078 F   0  0  0  0  0  0  0  0  0  0  0  0
   -2.7854    7.3563    2.9966 F   0  0  0  0  0  0  0  0  0  0  0  0
   -3.0699    8.9114    1.5162 F   0  0  0  0  0  0  0  0  0  0  0  0
   -0.6743    5.6298    0.1094 C   0  0  0  0  0  0  0  0  0  0  0  0
   -1.2755    6.1046   -0.9834 F   0  0  0  0  0  0  0  0  0  0  0  0
    0.0013    4.4164    0.0546 C   0  0  0  0  0  0  0  0  0  0  0  0
    4.6564    1.2532    0.0142 C   0  0  2  0  0  0  0  0  0  0  0  0
    5.0524    1.7453    1.4259 C   0  0  0  0  0  0  0  0  0  0  0  0
    5.2112    2.2592   -1.0237 C   0  0  0  0  0  0  0  0  0  0  0  0
    5.3447   -0.1066   -0.2668 C   0  0  0  0  0  0  0  0  0  0  0  0
    4.6033   -1.2896    0.3426 C   0  0  0  0  0  0  0  0  0  0  0  0
    3.2183   -1.3802   -0.2881 C   0  0  0  0  0  0  0  0  0  0  0  0
    0.5499    0.7399   -0.9860 H   0  0  0  0  0  0  0  0  0  0  0  0
    0.4648   -0.5371    0.2525 H   0  0  0  0  0  0  0  0  0  0  0  0
    0.8682   -0.9516   -1.4152 H   0  0  0  0  0  0  0  0  0  0  0  0
    1.7397    2.5740   -0.9697 H   0  0  0  0  0  0  0  0  0  0  0  0
    3.0051    3.3017   -0.0127 H   0  0  0  0  0  0  0  0  0  0  0  0
    0.5919    1.7784    1.0809 H   0  0  0  0  0  0  0  0  0  0  0  0
    2.8244    2.8023    2.4349 H   0  0  0  0  0  0  0  0  0  0  0  0
    1.0414    4.2468    3.2859 H   0  0  0  0  0  0  0  0  0  0  0  0
   -0.1497    6.4518    3.3593 H   0  0  0  0  0  0  0  0  0  0  0  0
    0.0055    3.8859   -0.8991 H   0  0  0  0  0  0  0  0  0  0  0  0
    4.6790    2.7651    1.6195 H   0  0  0  0  0  0  0  0  0  0  0  0
    6.1496    1.7955    1.5200 H   0  0  0  0  0  0  0  0  0  0  0  0
    4.6658    1.0844    2.2153 H   0  0  0  0  0  0  0  0  0  0  0  0
    4.8845    3.2931   -0.8353 H   0  0  0  0  0  0  0  0  0  0  0  0
    4.9026    1.9858   -2.0453 H   0  0  0  0  0  0  0  0  0  0  0  0
    6.3134    2.2588   -0.9936 H   0  0  0  0  0  0  0  0  0  0  0  0
    6.3875   -0.0601    0.0891 H   0  0  0  0  0  0  0  0  0  0  0  0
    5.3993   -0.2581   -1.3598 H   0  0  0  0  0  0  0  0  0  0  0  0
    4.5095   -1.1614    1.4348 H   0  0  0  0  0  0  0  0  0  0  0  0
    5.1635   -2.2256    0.1834 H   0  0  0  0  0  0  0  0  0  0  0  0
    2.5848   -2.0999    0.2617 H   0  0  0  0  0  0  0  0  0  0  0  0
    3.2949   -1.7909   -1.3147 H   0  0  0  0  0  0  0  0  0  0  0  0
  1  2  1  0
  1 25  1  0
  1 26  1  0
  1 27  1  0
  2  3  2  0
  2 24  1  0
  3  4  1  0
  3 19  1  0
  4  5  1  0
  4 28  1  0
  4 29  1  0
  5  6  1  0
  5  7  1  0
  5 30  1  6
  6 31  1  0
  7  8  2  0
  7 18  1  0
  8  9  1  0
  8 32  1  0
  9 10  2  0
  9 33  1  0
 10 11  1  0
 10 16  1  0
 11 12  1  0
 12 13  1  6
 12 14  1  0
 12 15  1  0
 16 17  1  0
 16 18  2  0
 18 34  1  0
 19 20  1  1
 19 21  1  0
 19 22  1  0
 20 35  1  0
 20 36  1  0
 20 37  1  0
 21 38  1  0
 21 39  1  0
 21 40  1  0
 22 23  1  0
 22 41  1  0
 22 42  1  0
 23 24  1  0
 23 43  1  0
 23 44  1  0
 24 45  1  0
 24 46  1  0
M  END

