
     RDKit          3D

 97103  0  0  0  0  0  0  0  0999 V2000
    8.2724    5.5830    1.6668 C   0  0  0  0  0  0  0  0  0  0  0  0
    7.2203    6.6632    1.3237 C   0  0  1  0  0  0  0  0  0  0  0  0
    6.1905    6.7608    2.4735 C   0  0  0  0  0  0  0  0  0  0  0  0
    7.9418    8.0180    1.2077 C   0  0  0  0  0  0  0  0  0  0  0  0
    6.4961    6.2752    0.0204 C   0  0  0  0  0  0  0  0  0  0  0  0
    5.7826    5.0634   -0.0581 C   0  0  0  0  0  0  0  0  0  0  0  0
    5.1128    4.6753   -1.2165 C   0  0  0  0  0  0  0  0  0  0  0  0
    5.1290    5.4858   -2.3674 C   0  0  0  0  0  0  0  0  0  0  0  0
    4.4157    5.0894   -3.6040 C   0  0  0  0  0  0  0  0  0  0  0  0
    3.6465    6.0061   -4.3870 C   0  0  0  0  0  0  0  0  0  0  0  0
    3.0024    5.4305   -5.4657 C   0  0  0  0  0  0  0  0  0  0  0  0
    2.1428    6.0563   -6.4512 C   0  0  0  0  0  0  0  0  0  0  0  0
    1.3028    5.4624   -7.3777 C   0  0  0  0  0  0  0  0  0  0  0  0
    0.6110    6.3907   -8.1934 C   0  0  0  0  0  0  0  0  0  0  0  0
    0.9060    7.7120   -7.9032 C   0  0  0  0  0  0  0  0  0  0  0  0
    0.3912    8.9187   -8.5201 C   0  0  0  0  0  0  0  0  0  0  0  0
    0.8517   10.2164   -8.4028 C   0  0  0  0  0  0  0  0  0  0  0  0
    0.1103   11.1743   -9.1628 C   0  0  0  0  0  0  0  0  0  0  0  0
    0.4784   12.6078   -9.2320 C   0  0  0  0  0  0  0  0  0  0  0  0
    0.4448   13.3184  -10.4425 C   0  0  0  0  0  0  0  0  0  0  0  0
    0.8001   14.6690  -10.4979 C   0  0  0  0  0  0  0  0  0  0  0  0
    1.2111   15.3722   -9.3540 C   0  0  0  0  0  0  0  0  0  0  0  0
    1.6110   16.8599   -9.3794 C   0  0  1  0  0  0  0  0  0  0  0  0
    1.4939   17.4699  -10.7879 C   0  0  0  0  0  0  0  0  0  0  0  0
    0.6858   17.6560   -8.4296 C   0  0  0  0  0  0  0  0  0  0  0  0
    3.0772   17.0054   -8.9095 C   0  0  0  0  0  0  0  0  0  0  0  0
    1.2536   14.6492   -8.1464 C   0  0  0  0  0  0  0  0  0  0  0  0
    0.8992   13.3030   -8.0829 C   0  0  0  0  0  0  0  0  0  0  0  0
   -0.9423   10.5795   -9.8474 C   0  0  0  0  0  0  0  0  0  0  0  0
   -1.9359   11.1440  -10.8207 C   0  0  0  0  0  0  0  0  0  0  0  0
   -2.0233   10.6692  -11.9460 O   0  0  0  0  0  0  0  0  0  0  0  0
   -2.7253   12.1848  -10.3964 N   0  0  0  0  0  0  0  0  0  0  0  0
   -3.6028   12.8500  -11.3569 C   0  0  0  0  0  0  0  0  0  0  0  0
   -5.0407   12.8530  -10.8433 C   0  0  0  0  0  0  0  0  0  0  0  0
   -5.1221   13.4098   -9.5451 O   0  0  0  0  0  0  0  0  0  0  0  0
   -4.3287   12.6967   -8.6212 C   0  0  0  0  0  0  0  0  0  0  0  0
   -2.8531   12.6833   -9.0316 C   0  0  0  0  0  0  0  0  0  0  0  0
   -0.9839    8.8597   -9.5940 S   0  0  0  0  0  0  0  0  0  0  0  0
    2.0671    7.7993   -6.5959 S   0  0  0  0  0  0  0  0  0  0  0  0
    3.3369    3.7182   -5.5267 S   0  0  0  0  0  0  0  0  0  0  0  0
    4.3601    3.8019   -4.1233 C   0  0  0  0  0  0  0  0  0  0  0  0
    4.9278    2.5065   -3.6203 C   0  0  0  0  0  0  0  0  0  0  0  0
    4.1828    1.5612   -3.3953 O   0  0  0  0  0  0  0  0  0  0  0  0
    6.2870    2.4342   -3.4370 N   0  0  0  0  0  0  0  0  0  0  0  0
    6.8594    1.2395   -2.8204 C   0  0  0  0  0  0  0  0  0  0  0  0
    7.9447    0.6509   -3.7191 C   0  0  0  0  0  0  0  0  0  0  0  0
    8.9197    1.6210   -4.0511 O   0  0  0  0  0  0  0  0  0  0  0  0
    8.3497    2.7257   -4.7192 C   0  0  0  0  0  0  0  0  0  0  0  0
    7.2789    3.4134   -3.8671 C   0  0  0  0  0  0  0  0  0  0  0  0
    5.8296    6.7001   -2.2940 C   0  0  0  0  0  0  0  0  0  0  0  0
    6.4980    7.0833   -1.1276 C   0  0  0  0  0  0  0  0  0  0  0  0
    8.7985    5.8412    2.6006 H   0  0  0  0  0  0  0  0  0  0  0  0
    9.0242    5.4949    0.8663 H   0  0  0  0  0  0  0  0  0  0  0  0
    7.8143    4.5920    1.8066 H   0  0  0  0  0  0  0  0  0  0  0  0
    6.6920    7.0353    3.4162 H   0  0  0  0  0  0  0  0  0  0  0  0
    5.6682    5.8065    2.6403 H   0  0  0  0  0  0  0  0  0  0  0  0
    5.4285    7.5264    2.2577 H   0  0  0  0  0  0  0  0  0  0  0  0
    8.4460    8.2541    2.1579 H   0  0  0  0  0  0  0  0  0  0  0  0
    7.2414    8.8404    0.9931 H   0  0  0  0  0  0  0  0  0  0  0  0
    8.7111    8.0085    0.4196 H   0  0  0  0  0  0  0  0  0  0  0  0
    5.7337    4.4038    0.8115 H   0  0  0  0  0  0  0  0  0  0  0  0
    4.5435    3.7431   -1.2207 H   0  0  0  0  0  0  0  0  0  0  0  0
    3.5337    7.0588   -4.1236 H   0  0  0  0  0  0  0  0  0  0  0  0
    1.1840    4.3809   -7.4602 H   0  0  0  0  0  0  0  0  0  0  0  0
   -0.0841    6.0997   -8.9827 H   0  0  0  0  0  0  0  0  0  0  0  0
    1.7381   10.4793   -7.8235 H   0  0  0  0  0  0  0  0  0  0  0  0
    0.1645   12.8023  -11.3636 H   0  0  0  0  0  0  0  0  0  0  0  0
    0.7621   15.1682  -11.4663 H   0  0  0  0  0  0  0  0  0  0  0  0
    0.4634   17.4207  -11.1732 H   0  0  0  0  0  0  0  0  0  0  0  0
    2.1545   16.9663  -11.5109 H   0  0  0  0  0  0  0  0  0  0  0  0
    1.7851   18.5316  -10.7593 H   0  0  0  0  0  0  0  0  0  0  0  0
   -0.3672   17.5740   -8.7431 H   0  0  0  0  0  0  0  0  0  0  0  0
    0.9593   18.7240   -8.4321 H   0  0  0  0  0  0  0  0  0  0  0  0
    0.7550   17.2977   -7.3912 H   0  0  0  0  0  0  0  0  0  0  0  0
    3.7611   16.4505   -9.5713 H   0  0  0  0  0  0  0  0  0  0  0  0
    3.2209   16.6265   -7.8861 H   0  0  0  0  0  0  0  0  0  0  0  0
    3.3804   18.0654   -8.9180 H   0  0  0  0  0  0  0  0  0  0  0  0
    1.5671   15.1461   -7.2253 H   0  0  0  0  0  0  0  0  0  0  0  0
    0.9326   12.7856   -7.1207 H   0  0  0  0  0  0  0  0  0  0  0  0
   -3.5218   12.3213  -12.3150 H   0  0  0  0  0  0  0  0  0  0  0  0
   -3.2617   13.8938  -11.4919 H   0  0  0  0  0  0  0  0  0  0  0  0
   -5.4356   11.8160  -10.8420 H   0  0  0  0  0  0  0  0  0  0  0  0
   -5.6808   13.4651  -11.4967 H   0  0  0  0  0  0  0  0  0  0  0  0
   -4.6913   11.6514   -8.5274 H   0  0  0  0  0  0  0  0  0  0  0  0
   -4.4449   13.1910   -7.6445 H   0  0  0  0  0  0  0  0  0  0  0  0
   -2.2797   12.0481   -8.3458 H   0  0  0  0  0  0  0  0  0  0  0  0
   -2.4442   13.7081   -8.9703 H   0  0  0  0  0  0  0  0  0  0  0  0
    6.0473    0.5210   -2.6517 H   0  0  0  0  0  0  0  0  0  0  0  0
    7.3035    1.5161   -1.8456 H   0  0  0  0  0  0  0  0  0  0  0  0
    7.4808    0.2415   -4.6402 H   0  0  0  0  0  0  0  0  0  0  0  0
    8.4682   -0.1683   -3.2031 H   0  0  0  0  0  0  0  0  0  0  0  0
    7.8995    2.4040   -5.6818 H   0  0  0  0  0  0  0  0  0  0  0  0
    9.1675    3.4291   -4.9388 H   0  0  0  0  0  0  0  0  0  0  0  0
    6.7935    4.2085   -4.4457 H   0  0  0  0  0  0  0  0  0  0  0  0
    7.7528    3.8756   -2.9822 H   0  0  0  0  0  0  0  0  0  0  0  0
    5.8704    7.3535   -3.1695 H   0  0  0  0  0  0  0  0  0  0  0  0
    7.0314    8.0340   -1.1309 H   0  0  0  0  0  0  0  0  0  0  0  0
  2  1  1  1
  1 52  1  0
  1 53  1  0
  1 54  1  0
  2  3  1  0
  2  4  1  0
  2  5  1  0
  3 55  1  0
  3 56  1  0
  3 57  1  0
  4 58  1  0
  4 59  1  0
  4 60  1  0
  5  6  2  0
  5 51  1  0
  6  7  1  0
  6 61  1  0
  7  8  2  0
  7 62  1  0
  8  9  1  0
  8 50  1  0
  9 10  2  0
  9 41  1  0
 10 11  1  0
 10 63  1  0
 11 12  2  0
 11 40  1  0
 12 13  1  0
 12 39  1  0
 13 14  2  0
 13 64  1  0
 14 15  1  0
 14 65  1  0
 15 16  2  0
 15 39  1  0
 16 17  1  0
 16 38  1  0
 17 18  2  0
 17 66  1  0
 18 19  1  0
 18 29  1  0
 19 20  2  0
 19 28  1  0
 20 21  1  0
 20 67  1  0
 21 22  2  0
 21 68  1  0
 22 23  1  0
 22 27  1  0
 23 24  1  6
 23 25  1  0
 23 26  1  0
 24 69  1  0
 24 70  1  0
 24 71  1  0
 25 72  1  0
 25 73  1  0
 25 74  1  0
 26 75  1  0
 26 76  1  0
 26 77  1  0
 27 28  2  0
 27 78  1  0
 28 79  1  0
 29 30  1  0
 29 38  2  0
 30 31  2  0
 30 32  1  0
 32 33  1  0
 32 37  1  0
 33 34  1  0
 33 80  1  0
 33 81  1  0
 34 35  1  0
 34 82  1  0
 34 83  1  0
 35 36  1  0
 36 37  1  0
 36 84  1  0
 36 85  1  0
 37 86  1  0
 37 87  1  0
 40 41  1  0
 41 42  2  0
 42 43  1  0
 42 44  1  0
 44 45  1  0
 44 49  1  0
 45 46  1  0
 45 88  1  0
 45 89  1  0
 46 47  1  0
 46 90  1  0
 46 91  1  0
 47 48  1  0
 48 49  1  0
 48 92  1  0
 48 93  1  0
 49 94  1  0
 49 95  1  0
 50 51  2  0
 50 96  1  0
 51 97  1  0
M  CHG  2  38   1  43  -1
M  END

