
     RDKit          3D

 21 22  0  0  0  0  0  0  0  0999 V2000
    2.5606    1.0091   -1.6841 Br  0  0  0  0  0  0  0  0  0  0  0  0
    2.8877   -0.0919   -0.0740 C   0  0  0  0  0  0  0  0  0  0  0  0
    3.4096   -1.4547   -0.4322 C   0  0  0  0  0  0  0  0  0  0  0  0
    4.7298   -1.6596   -0.8591 C   0  0  0  0  0  0  0  0  0  0  0  0
    5.0902   -2.9735   -1.1544 C   0  0  0  0  0  0  0  0  0  0  0  0
    4.2371   -3.9910   -1.0441 N   0  0  0  0  0  0  0  0  0  0  0  0
    3.0027   -3.6969   -0.6237 C   0  0  0  0  0  0  0  0  0  0  0  0
    2.0300   -4.8357   -0.4849 C   0  0  0  0  0  0  0  0  0  0  0  0
    0.9742   -4.6432    0.3148 N   0  0  0  0  0  0  0  0  0  0  0  0
    0.1182   -5.6557    0.4357 C   0  0  0  0  0  0  0  0  0  0  0  0
    0.2953   -6.8655   -0.2396 C   0  0  0  0  0  0  0  0  0  0  0  0
    1.4298   -6.9559   -1.0494 C   0  0  0  0  0  0  0  0  0  0  0  0
    2.2964   -5.9527   -1.1718 N   0  0  0  0  0  0  0  0  0  0  0  0
    2.5574   -2.4738   -0.3132 N   0  0  0  0  0  0  0  0  0  0  0  0
    1.9248   -0.1850    0.4383 H   0  0  0  0  0  0  0  0  0  0  0  0
    3.6006    0.4828    0.5297 H   0  0  0  0  0  0  0  0  0  0  0  0
    5.4360   -0.8337   -0.9636 H   0  0  0  0  0  0  0  0  0  0  0  0
    6.1061   -3.2141   -1.4902 H   0  0  0  0  0  0  0  0  0  0  0  0
   -0.7431   -5.4993    1.0968 H   0  0  0  0  0  0  0  0  0  0  0  0
   -0.4112   -7.6917   -0.1401 H   0  0  0  0  0  0  0  0  0  0  0  0
    1.6456   -7.8683   -1.6188 H   0  0  0  0  0  0  0  0  0  0  0  0
  1  2  1  0
  2  3  1  0
  2 15  1  0
  2 16  1  0
  3  4  2  0
  3 14  1  0
  4  5  1  0
  4 17  1  0
  5  6  2  0
  5 18  1  0
  6  7  1  0
  7  8  1  0
  7 14  2  0
  8  9  2  0
  8 13  1  0
  9 10  1  0
 10 11  2  0
 10 19  1  0
 11 12  1  0
 11 20  1  0
 12 13  2  0
 12 21  1  0
M  END

