
     RDKit          3D

 63 66  0  0  0  0  0  0  0  0999 V2000
    2.0606    1.0900    1.5210 C   0  0  0  0  0  0  0  0  0  0  0  0
    2.4196    0.3718    0.3601 O   0  0  0  0  0  0  0  0  0  0  0  0
    2.8615    1.0578   -0.7282 C   0  0  0  0  0  0  0  0  0  0  0  0
    2.9670    2.4471   -0.7874 C   0  0  0  0  0  0  0  0  0  0  0  0
    3.3823    3.0927   -1.9620 C   0  0  0  0  0  0  0  0  0  0  0  0
    3.7099    2.3490   -3.1052 C   0  0  0  0  0  0  0  0  0  0  0  0
    3.6217    0.9552   -3.0387 C   0  0  0  0  0  0  0  0  0  0  0  0
    3.2085    0.2964   -1.8763 C   0  0  0  0  0  0  0  0  0  0  0  0
    3.1069   -1.0556   -1.9450 O   0  0  0  0  0  0  0  0  0  0  0  0
    3.6037   -1.8742   -0.8953 C   0  0  0  0  0  0  0  0  0  0  0  0
    4.2693    3.1096   -4.2962 C   0  0  1  0  0  0  0  0  0  0  0  0
    5.3201    3.3199   -4.0467 H   0  0  0  0  0  0  0  0  0  0  0  0
    4.1791    2.3295   -5.6186 C   0  0  0  0  0  0  0  0  0  0  0  0
    3.1562    1.7174   -5.8876 O   0  0  0  0  0  0  0  0  0  0  0  0
    5.2509    2.3575   -6.4858 N   0  0  0  0  0  0  0  0  0  0  0  0
    5.1916    1.5181   -7.6877 C   0  0  0  0  0  0  0  0  0  0  0  0
    5.5172    2.3094   -8.9654 C   0  0  1  0  0  0  0  0  0  0  0  0
    5.6779    1.5589   -9.7598 H   0  0  0  0  0  0  0  0  0  0  0  0
    4.3412    3.1873   -9.4157 C   0  0  0  0  0  0  0  0  0  0  0  0
    6.8613    3.0491   -8.7820 C   0  0  0  0  0  0  0  0  0  0  0  0
    7.0003    3.8424   -7.4641 C   0  0  1  0  0  0  0  0  0  0  0  0
    8.0781    4.0353   -7.3174 H   0  0  0  0  0  0  0  0  0  0  0  0
    6.3027    5.2088   -7.4663 C   0  0  0  0  0  0  0  0  0  0  0  0
    6.5645    2.9612   -6.2741 C   0  0  0  0  0  0  0  0  0  0  0  0
    3.6069    4.5108   -4.4338 C   0  0  1  0  0  0  0  0  0  0  0  0
    4.2572    5.0871   -5.1117 H   0  0  0  0  0  0  0  0  0  0  0  0
    2.2178    4.5350   -5.0665 C   0  0  0  0  0  0  0  0  0  0  0  0
    1.0824    3.9622   -4.4750 C   0  0  0  0  0  0  0  0  0  0  0  0
   -0.1412    4.0478   -5.1362 C   0  0  0  0  0  0  0  0  0  0  0  0
   -0.1969    4.7064   -6.3696 C   0  0  0  0  0  0  0  0  0  0  0  0
    0.8680    5.2685   -6.9417 N   0  0  0  0  0  0  0  0  0  0  0  0
    2.0335    5.1796   -6.2984 C   0  0  0  0  0  0  0  0  0  0  0  0
    3.6552    5.2124   -3.1456 N   0  0  0  0  0  0  0  0  0  0  0  0
    3.6436    6.6645   -3.1970 C   0  0  0  0  0  0  0  0  0  0  0  0
    3.4533    4.5863   -1.9332 C   0  0  0  0  0  0  0  0  0  0  0  0
    3.3349    5.2136   -0.8873 O   0  0  0  0  0  0  0  0  0  0  0  0
    1.7406    0.3450    2.2618 H   0  0  0  0  0  0  0  0  0  0  0  0
    1.2260    1.7871    1.3284 H   0  0  0  0  0  0  0  0  0  0  0  0
    2.9119    1.6628    1.9298 H   0  0  0  0  0  0  0  0  0  0  0  0
    2.7228    3.0807    0.0642 H   0  0  0  0  0  0  0  0  0  0  0  0
    3.8483    0.3300   -3.9014 H   0  0  0  0  0  0  0  0  0  0  0  0
    3.7213   -2.8805   -1.3227 H   0  0  0  0  0  0  0  0  0  0  0  0
    2.9142   -1.9151   -0.0403 H   0  0  0  0  0  0  0  0  0  0  0  0
    4.5886   -1.5204   -0.5428 H   0  0  0  0  0  0  0  0  0  0  0  0
    4.1909    1.0735   -7.7317 H   0  0  0  0  0  0  0  0  0  0  0  0
    5.9253    0.6970   -7.5687 H   0  0  0  0  0  0  0  0  0  0  0  0
    3.9719    3.8441   -8.6151 H   0  0  0  0  0  0  0  0  0  0  0  0
    3.4916    2.5595   -9.7275 H   0  0  0  0  0  0  0  0  0  0  0  0
    4.6213    3.8224  -10.2715 H   0  0  0  0  0  0  0  0  0  0  0  0
    7.0536    3.7123   -9.6423 H   0  0  0  0  0  0  0  0  0  0  0  0
    7.6630    2.2893   -8.7979 H   0  0  0  0  0  0  0  0  0  0  0  0
    5.2079    5.1190   -7.4966 H   0  0  0  0  0  0  0  0  0  0  0  0
    6.6081    5.8063   -8.3398 H   0  0  0  0  0  0  0  0  0  0  0  0
    6.5677    5.7839   -6.5634 H   0  0  0  0  0  0  0  0  0  0  0  0
    6.5741    3.5563   -5.3540 H   0  0  0  0  0  0  0  0  0  0  0  0
    7.3070    2.1498   -6.1397 H   0  0  0  0  0  0  0  0  0  0  0  0
    1.1516    3.4506   -3.5139 H   0  0  0  0  0  0  0  0  0  0  0  0
   -1.0426    3.6061   -4.7053 H   0  0  0  0  0  0  0  0  0  0  0  0
   -1.1465    4.7850   -6.9126 H   0  0  0  0  0  0  0  0  0  0  0  0
    2.8923    5.6577   -6.7890 H   0  0  0  0  0  0  0  0  0  0  0  0
    4.5313    7.0398   -3.7344 H   0  0  0  0  0  0  0  0  0  0  0  0
    3.6491    7.0449   -2.1692 H   0  0  0  0  0  0  0  0  0  0  0  0
    2.7431    7.0411   -3.7134 H   0  0  0  0  0  0  0  0  0  0  0  0
  1  2  1  0
  1 37  1  0
  1 38  1  0
  1 39  1  0
  2  3  1  0
  3  4  2  0
  3  8  1  0
  4  5  1  0
  4 40  1  0
  5  6  2  0
  5 35  1  0
  6  7  1  0
  6 11  1  0
  7  8  2  0
  7 41  1  0
  8  9  1  0
  9 10  1  0
 10 42  1  0
 10 43  1  0
 10 44  1  0
 11 12  1  1
 11 13  1  0
 11 25  1  0
 13 14  2  0
 13 15  1  0
 15 16  1  0
 15 24  1  0
 16 17  1  0
 16 45  1  0
 16 46  1  0
 17 18  1  6
 17 19  1  0
 17 20  1  0
 19 47  1  0
 19 48  1  0
 19 49  1  0
 20 21  1  0
 20 50  1  0
 20 51  1  0
 21 22  1  1
 21 23  1  0
 21 24  1  0
 23 52  1  0
 23 53  1  0
 23 54  1  0
 24 55  1  0
 24 56  1  0
 25 26  1  6
 25 27  1  0
 25 33  1  0
 27 28  2  0
 27 32  1  0
 28 29  1  0
 28 57  1  0
 29 30  2  0
 29 58  1  0
 30 31  1  0
 30 59  1  0
 31 32  2  0
 32 60  1  0
 33 34  1  0
 33 35  1  0
 34 61  1  0
 34 62  1  0
 34 63  1  0
 35 36  2  0
M  END

