
     RDKit          3D

 47 49  0  0  0  0  0  0  0  0999 V2000
    1.2716    0.3006    0.7999 C   0  0  0  0  0  0  0  0  0  0  0  0
    2.6891    0.2606    0.2790 C   0  0  0  0  0  0  0  0  0  0  0  0
    3.4215    1.4312    0.0605 C   0  0  0  0  0  0  0  0  0  0  0  0
    4.7420    1.3478   -0.3887 C   0  0  0  0  0  0  0  0  0  0  0  0
    5.3771    0.1293   -0.6510 C   0  0  0  0  0  0  0  0  0  0  0  0
    6.8482    0.1261   -0.9959 C   0  0  0  0  0  0  0  0  0  0  0  0
    4.6230   -1.0704   -0.4859 C   0  0  0  0  0  0  0  0  0  0  0  0
    5.1798   -2.3279   -0.7528 N   0  0  0  0  0  0  0  0  0  0  0  0
    5.9612   -2.6113   -1.9724 C   0  0  0  0  0  0  0  0  0  0  0  0
    5.7318   -4.1055   -2.2402 C   0  0  0  0  0  0  0  0  0  0  0  0
    5.3989   -4.6712   -0.8532 C   0  0  2  0  0  0  0  0  0  0  0  0
    4.7176   -6.0420   -0.8535 C   0  0  0  0  0  0  0  0  0  0  0  0
    5.5486   -7.0834   -1.4490 N   0  0  0  0  0  0  0  0  0  0  0  0
    6.6008   -7.6225   -0.5876 C   0  0  0  0  0  0  0  0  0  0  0  0
    6.0960   -8.7113    0.3705 C   0  0  0  0  0  0  0  0  0  0  0  0
    5.4450   -9.7623   -0.4032 N   0  0  0  0  0  0  0  0  0  0  0  0
    4.3263   -9.2541   -1.1888 C   0  0  0  0  0  0  0  0  0  0  0  0
    4.8446   -8.1633   -2.1360 C   0  0  0  0  0  0  0  0  0  0  0  0
    4.5384   -3.5458   -0.2710 C   0  0  0  0  0  0  0  0  0  0  0  0
    3.3024   -0.9688    0.0006 C   0  0  0  0  0  0  0  0  0  0  0  0
    0.8978    1.3327    0.8734 H   0  0  0  0  0  0  0  0  0  0  0  0
    1.1997   -0.1530    1.8035 H   0  0  0  0  0  0  0  0  0  0  0  0
    0.5839   -0.2605    0.1453 H   0  0  0  0  0  0  0  0  0  0  0  0
    2.9729    2.4076    0.2621 H   0  0  0  0  0  0  0  0  0  0  0  0
    5.3193    2.2691   -0.5131 H   0  0  0  0  0  0  0  0  0  0  0  0
    7.2918    1.1085   -0.7767 H   0  0  0  0  0  0  0  0  0  0  0  0
    7.0507   -0.0912   -2.0576 H   0  0  0  0  0  0  0  0  0  0  0  0
    7.3900   -0.6285   -0.4034 H   0  0  0  0  0  0  0  0  0  0  0  0
    7.0355   -2.4104   -1.8240 H   0  0  0  0  0  0  0  0  0  0  0  0
    5.6269   -1.9816   -2.8151 H   0  0  0  0  0  0  0  0  0  0  0  0
    6.5934   -4.5963   -2.7132 H   0  0  0  0  0  0  0  0  0  0  0  0
    4.8638   -4.2504   -2.9069 H   0  0  0  0  0  0  0  0  0  0  0  0
    6.3308   -4.7269   -0.2622 H   0  0  0  0  0  0  0  0  0  0  0  0
    3.7934   -5.9669   -1.4517 H   0  0  0  0  0  0  0  0  0  0  0  0
    4.3880   -6.2796    0.1822 H   0  0  0  0  0  0  0  0  0  0  0  0
    7.0716   -6.8040   -0.0213 H   0  0  0  0  0  0  0  0  0  0  0  0
    7.3819   -8.0669   -1.2302 H   0  0  0  0  0  0  0  0  0  0  0  0
    5.4191   -8.2507    1.1277 H   0  0  0  0  0  0  0  0  0  0  0  0
    6.9489   -9.1402    0.9228 H   0  0  0  0  0  0  0  0  0  0  0  0
    5.1473  -10.5250    0.2013 H   0  0  0  0  0  0  0  0  0  0  0  0
    3.5077   -8.8340   -0.5578 H   0  0  0  0  0  0  0  0  0  0  0  0
    3.8896  -10.0791   -1.7765 H   0  0  0  0  0  0  0  0  0  0  0  0
    4.0174   -7.7398   -2.7276 H   0  0  0  0  0  0  0  0  0  0  0  0
    5.5496   -8.6374   -2.8430 H   0  0  0  0  0  0  0  0  0  0  0  0
    4.4875   -3.5539    0.8312 H   0  0  0  0  0  0  0  0  0  0  0  0
    3.4962   -3.6572   -0.6444 H   0  0  0  0  0  0  0  0  0  0  0  0
    2.7200   -1.8779    0.1560 H   0  0  0  0  0  0  0  0  0  0  0  0
  1  2  1  0
  1 21  1  0
  1 22  1  0
  1 23  1  0
  2  3  2  0
  2 20  1  0
  3  4  1  0
  3 24  1  0
  4  5  2  0
  4 25  1  0
  5  6  1  0
  5  7  1  0
  6 26  1  0
  6 27  1  0
  6 28  1  0
  7  8  1  0
  7 20  2  0
  8  9  1  0
  8 19  1  0
  9 10  1  0
  9 29  1  0
  9 30  1  0
 10 11  1  0
 10 31  1  0
 10 32  1  0
 11 12  1  0
 11 19  1  0
 11 33  1  1
 12 13  1  0
 12 34  1  0
 12 35  1  0
 13 14  1  0
 13 18  1  0
 14 15  1  0
 14 36  1  0
 14 37  1  0
 15 16  1  0
 15 38  1  0
 15 39  1  0
 16 17  1  0
 16 40  1  0
 17 18  1  0
 17 41  1  0
 17 42  1  0
 18 43  1  0
 18 44  1  0
 19 45  1  0
 19 46  1  0
 20 47  1  0
M  END

