
     RDKit          3D

 74 76  0  0  0  0  0  0  0  0999 V2000
    1.0070   -1.4255    4.4742 C   0  0  0  0  0  0  0  0  0  0  0  0
    2.2140   -0.7081    3.8702 C   0  0  2  0  0  0  0  0  0  0  0  0
    3.1041   -0.8914    4.5017 H   0  0  0  0  0  0  0  0  0  0  0  0
    1.9536    0.6854    3.7924 O   0  0  0  0  0  0  0  0  0  0  0  0
    2.3185    1.9082    4.8987 Si  0  0  1  0  0  4  0  0  0  0  0  0
    1.0416    1.9161    6.2946 C   0  0  0  0  0  0  0  0  0  0  0  0
    4.0361    1.6206    5.6264 C   0  0  0  0  0  0  0  0  0  0  0  0
    2.2132    3.5240    3.8688 C   0  0  1  0  0  0  0  0  0  0  0  0
    0.8286    3.6109    3.1941 C   0  0  0  0  0  0  0  0  0  0  0  0
    2.4145    4.7506    4.7821 C   0  0  0  0  0  0  0  0  0  0  0  0
    3.3054    3.5149    2.7804 C   0  0  0  0  0  0  0  0  0  0  0  0
    2.5699   -1.1922    2.4440 C   0  0  2  0  0  0  0  0  0  0  0  0
    1.7142   -0.9246    1.8047 H   0  0  0  0  0  0  0  0  0  0  0  0
    2.8098   -2.7276    2.3517 C   0  0  0  0  0  0  0  0  0  0  0  0
    1.6249   -3.5489    1.7990 C   0  0  0  0  0  0  0  0  0  0  0  0
    1.3002   -3.2563    0.3474 C   0  0  0  0  0  0  0  0  0  0  0  0
    2.0900   -3.7872   -0.6795 C   0  0  0  0  0  0  0  0  0  0  0  0
    1.8332   -3.5228   -2.0286 C   0  0  0  0  0  0  0  0  0  0  0  0
    0.7560   -2.7055   -2.3679 C   0  0  0  0  0  0  0  0  0  0  0  0
   -0.0587   -2.1614   -1.3692 C   0  0  0  0  0  0  0  0  0  0  0  0
    0.2066   -2.4343   -0.0178 C   0  0  0  0  0  0  0  0  0  0  0  0
   -0.5433   -1.9371    1.0096 O   0  0  0  0  0  0  0  0  0  0  0  0
   -1.7060   -1.1655    0.7258 C   0  0  0  0  0  0  0  0  0  0  0  0
   -2.4079   -0.8427    2.0206 C   0  0  0  0  0  0  0  0  0  0  0  0
   -3.0960   -1.8479    2.7186 C   0  0  0  0  0  0  0  0  0  0  0  0
   -3.7360   -1.5638    3.9262 C   0  0  0  0  0  0  0  0  0  0  0  0
   -3.6992   -0.2668    4.4508 C   0  0  0  0  0  0  0  0  0  0  0  0
   -3.0175    0.7406    3.7635 C   0  0  0  0  0  0  0  0  0  0  0  0
   -2.3721    0.4514    2.5567 C   0  0  0  0  0  0  0  0  0  0  0  0
    3.7637   -0.4395    1.9260 C   0  0  0  0  0  0  0  0  0  0  0  0
    4.9359   -0.3154    2.5378 N   0  0  0  0  0  0  0  0  0  0  0  0
    5.7375    0.3778    1.6782 C   0  0  0  0  0  0  0  0  0  0  0  0
    5.0516    0.6860    0.5136 C   0  0  0  0  0  0  0  0  0  0  0  0
    5.3300    1.3991   -0.7487 C   0  0  0  0  0  0  0  0  0  0  0  0
    6.5886    1.9039   -0.8979 N   0  0  0  0  0  0  0  0  0  0  0  0
    4.4633    1.5164   -1.6064 O   0  0  0  0  0  0  0  0  0  0  0  0
    3.7962    0.1502    0.7040 N   0  0  0  0  0  0  0  0  0  0  0  0
    3.0594    0.2085    0.0074 H   0  0  0  0  0  0  0  0  0  0  0  0
    0.1161   -1.2809    3.8449 H   0  0  0  0  0  0  0  0  0  0  0  0
    0.7899   -1.0185    5.4730 H   0  0  0  0  0  0  0  0  0  0  0  0
    1.1860   -2.5049    4.5899 H   0  0  0  0  0  0  0  0  0  0  0  0
    1.1172    0.9956    6.8967 H   0  0  0  0  0  0  0  0  0  0  0  0
    0.0130    1.9745    5.9040 H   0  0  0  0  0  0  0  0  0  0  0  0
    1.1964    2.7670    6.9786 H   0  0  0  0  0  0  0  0  0  0  0  0
    4.0158    0.8144    6.3785 H   0  0  0  0  0  0  0  0  0  0  0  0
    4.4167    2.5253    6.1286 H   0  0  0  0  0  0  0  0  0  0  0  0
    4.7496    1.3231    4.8421 H   0  0  0  0  0  0  0  0  0  0  0  0
    0.0119    3.6651    3.9333 H   0  0  0  0  0  0  0  0  0  0  0  0
    0.6414    2.7368    2.5509 H   0  0  0  0  0  0  0  0  0  0  0  0
    0.7608    4.5172    2.5646 H   0  0  0  0  0  0  0  0  0  0  0  0
    1.6390    4.8219    5.5624 H   0  0  0  0  0  0  0  0  0  0  0  0
    2.3668    5.6831    4.1903 H   0  0  0  0  0  0  0  0  0  0  0  0
    3.3956    4.7380    5.2857 H   0  0  0  0  0  0  0  0  0  0  0  0
    3.1981    2.6540    2.1032 H   0  0  0  0  0  0  0  0  0  0  0  0
    4.3186    3.4740    3.2127 H   0  0  0  0  0  0  0  0  0  0  0  0
    3.2466    4.4330    2.1670 H   0  0  0  0  0  0  0  0  0  0  0  0
    3.0890   -3.1148    3.3464 H   0  0  0  0  0  0  0  0  0  0  0  0
    3.6871   -2.9161    1.7133 H   0  0  0  0  0  0  0  0  0  0  0  0
    0.7304   -3.3880    2.4148 H   0  0  0  0  0  0  0  0  0  0  0  0
    1.8863   -4.6169    1.8884 H   0  0  0  0  0  0  0  0  0  0  0  0
    2.9314   -4.4327   -0.4089 H   0  0  0  0  0  0  0  0  0  0  0  0
    2.4698   -3.9532   -2.8049 H   0  0  0  0  0  0  0  0  0  0  0  0
    0.5390   -2.4828   -3.4157 H   0  0  0  0  0  0  0  0  0  0  0  0
   -0.8954   -1.5242   -1.6544 H   0  0  0  0  0  0  0  0  0  0  0  0
   -2.3753   -1.7418    0.0606 H   0  0  0  0  0  0  0  0  0  0  0  0
   -1.4268   -0.2361    0.1981 H   0  0  0  0  0  0  0  0  0  0  0  0
   -3.1272   -2.8619    2.3102 H   0  0  0  0  0  0  0  0  0  0  0  0
   -4.2691   -2.3551    4.4596 H   0  0  0  0  0  0  0  0  0  0  0  0
   -4.2032   -0.0428    5.3945 H   0  0  0  0  0  0  0  0  0  0  0  0
   -2.9838    1.7555    4.1678 H   0  0  0  0  0  0  0  0  0  0  0  0
   -1.8315    1.2412    2.0278 H   0  0  0  0  0  0  0  0  0  0  0  0
    6.7677    0.6244    1.9383 H   0  0  0  0  0  0  0  0  0  0  0  0
    7.2954    1.8317   -0.1797 H   0  0  0  0  0  0  0  0  0  0  0  0
    6.7962    2.4154   -1.7464 H   0  0  0  0  0  0  0  0  0  0  0  0
  1  2  1  0
  1 39  1  0
  1 40  1  0
  1 41  1  0
  2  3  1  1
  2  4  1  0
  2 12  1  0
  5  4  1  6
  5  6  1  0
  5  7  1  0
  5  8  1  0
  6 42  1  0
  6 43  1  0
  6 44  1  0
  7 45  1  0
  7 46  1  0
  7 47  1  0
  8  9  1  6
  8 10  1  0
  8 11  1  0
  9 48  1  0
  9 49  1  0
  9 50  1  0
 10 51  1  0
 10 52  1  0
 10 53  1  0
 11 54  1  0
 11 55  1  0
 11 56  1  0
 12 13  1  6
 12 14  1  0
 12 30  1  0
 14 15  1  0
 14 57  1  0
 14 58  1  0
 15 16  1  0
 15 59  1  0
 15 60  1  0
 16 17  2  0
 16 21  1  0
 17 18  1  0
 17 61  1  0
 18 19  2  0
 18 62  1  0
 19 20  1  0
 19 63  1  0
 20 21  2  0
 20 64  1  0
 21 22  1  0
 22 23  1  0
 23 24  1  0
 23 65  1  0
 23 66  1  0
 24 25  2  0
 24 29  1  0
 25 26  1  0
 25 67  1  0
 26 27  2  0
 26 68  1  0
 27 28  1  0
 27 69  1  0
 28 29  2  0
 28 70  1  0
 29 71  1  0
 30 31  2  0
 30 37  1  0
 31 32  1  0
 32 33  2  0
 32 72  1  0
 33 34  1  0
 33 37  1  0
 34 35  1  0
 34 36  2  0
 35 73  1  0
 35 74  1  0
 37 38  1  0
M  END

