
     RDKit          3D

 41 42  0  0  0  0  0  0  0  0999 V2000
    2.4820    1.2182   -0.9087 C   0  0  0  0  0  0  0  0  0  0  0  0
    2.4336   -0.1137   -0.1474 C   0  0  1  0  0  0  0  0  0  0  0  0
    0.9803   -0.5606    0.0614 C   0  0  0  0  0  0  0  0  0  0  0  0
    3.2362   -1.2262   -0.8533 C   0  0  0  0  0  0  0  0  0  0  0  0
    4.7608   -1.0474   -0.9519 C   0  0  1  0  0  0  0  0  0  0  0  0
    5.4626   -1.2366    0.4037 C   0  0  0  0  0  0  0  0  0  0  0  0
    6.8785   -0.8798    0.3348 N   0  0  0  0  0  0  0  0  0  0  0  0
    5.3661   -2.0085   -1.9969 C   0  0  0  0  0  0  0  0  0  0  0  0
    4.9504   -1.7378   -3.3592 N   0  0  0  0  0  0  0  0  0  0  0  0
    5.7001   -0.7469   -4.1393 C   0  0  0  0  0  0  0  0  0  0  0  0
    5.1264   -0.8638   -5.5672 C   0  0  0  0  0  0  0  0  0  0  0  0
    4.5461   -2.2617   -5.5697 C   0  0  0  0  0  0  0  0  0  0  0  0
    4.0922   -3.0572   -6.6122 C   0  0  0  0  0  0  0  0  0  0  0  0
    3.5321   -4.3158   -6.3307 C   0  0  0  0  0  0  0  0  0  0  0  0
    3.4302   -4.7451   -5.0050 C   0  0  0  0  0  0  0  0  0  0  0  0
    3.8813   -3.9507   -3.9406 C   0  0  0  0  0  0  0  0  0  0  0  0
    4.4474   -2.7018   -4.2299 C   0  0  0  0  0  0  0  0  0  0  0  0
    1.8997    1.9946   -0.3861 H   0  0  0  0  0  0  0  0  0  0  0  0
    2.0560    1.1070   -1.9209 H   0  0  0  0  0  0  0  0  0  0  0  0
    3.5090    1.5999   -1.0213 H   0  0  0  0  0  0  0  0  0  0  0  0
    2.8729    0.0547    0.8537 H   0  0  0  0  0  0  0  0  0  0  0  0
    0.4867   -0.7581   -0.9059 H   0  0  0  0  0  0  0  0  0  0  0  0
    0.3920    0.2116    0.5836 H   0  0  0  0  0  0  0  0  0  0  0  0
    0.9237   -1.4863    0.6570 H   0  0  0  0  0  0  0  0  0  0  0  0
    2.8385   -1.3381   -1.8773 H   0  0  0  0  0  0  0  0  0  0  0  0
    3.0349   -2.1873   -0.3432 H   0  0  0  0  0  0  0  0  0  0  0  0
    4.9766   -0.0175   -1.2930 H   0  0  0  0  0  0  0  0  0  0  0  0
    5.3940   -2.3028    0.6878 H   0  0  0  0  0  0  0  0  0  0  0  0
    4.9026   -0.6794    1.1829 H   0  0  0  0  0  0  0  0  0  0  0  0
    6.9847    0.1322    0.2513 H   0  0  0  0  0  0  0  0  0  0  0  0
    7.3598   -1.1463    1.1931 H   0  0  0  0  0  0  0  0  0  0  0  0
    5.0795   -3.0396   -1.7352 H   0  0  0  0  0  0  0  0  0  0  0  0
    6.4675   -1.9550   -1.9164 H   0  0  0  0  0  0  0  0  0  0  0  0
    6.7829   -0.9964   -4.1259 H   0  0  0  0  0  0  0  0  0  0  0  0
    5.5932    0.2641   -3.7155 H   0  0  0  0  0  0  0  0  0  0  0  0
    5.8900   -0.6958   -6.3420 H   0  0  0  0  0  0  0  0  0  0  0  0
    4.3273   -0.1174   -5.7290 H   0  0  0  0  0  0  0  0  0  0  0  0
    4.1720   -2.7089   -7.6464 H   0  0  0  0  0  0  0  0  0  0  0  0
    3.1780   -4.9534   -7.1439 H   0  0  0  0  0  0  0  0  0  0  0  0
    2.9923   -5.7229   -4.7858 H   0  0  0  0  0  0  0  0  0  0  0  0
    3.7864   -4.3081   -2.9135 H   0  0  0  0  0  0  0  0  0  0  0  0
  1  2  1  0
  1 18  1  0
  1 19  1  0
  1 20  1  0
  2  3  1  0
  2  4  1  0
  2 21  1  1
  3 22  1  0
  3 23  1  0
  3 24  1  0
  4  5  1  0
  4 25  1  0
  4 26  1  0
  5  6  1  0
  5  8  1  0
  5 27  1  6
  6  7  1  0
  6 28  1  0
  6 29  1  0
  7 30  1  0
  7 31  1  0
  8  9  1  0
  8 32  1  0
  8 33  1  0
  9 10  1  0
  9 17  1  0
 10 11  1  0
 10 34  1  0
 10 35  1  0
 11 12  1  0
 11 36  1  0
 11 37  1  0
 12 13  2  0
 12 17  1  0
 13 14  1  0
 13 38  1  0
 14 15  2  0
 14 39  1  0
 15 16  1  0
 15 40  1  0
 16 17  2  0
 16 41  1  0
M  END

