
     RDKit          3D

 59 62  0  0  0  0  0  0  0  0999 V2000
    2.1500   -1.1103   -0.5397 O   0  0  0  0  0  0  0  0  0  0  0  0
    2.4065    0.0841   -0.4685 C   0  0  0  0  0  0  0  0  0  0  0  0
    2.2114    0.9336   -1.5319 N   0  0  0  0  0  0  0  0  0  0  0  0
    1.6941    0.4590   -2.7931 C   0  0  1  0  0  0  0  0  0  0  0  0
    0.6383    1.3688   -3.4375 C   0  0  0  0  0  0  0  0  0  0  0  0
    0.3064    0.7399   -4.7904 C   0  0  0  0  0  0  0  0  0  0  0  0
    1.8396   -0.1589   -5.4360 S   0  0  0  0  0  0  0  0  0  0  0  0
   -0.1660   -2.1850   -3.2441 O   0  0  0  0  0  0  0  0  0  0  0  0
    1.5263   -1.6488   -5.3725 O   0  0  0  0  0  0  0  0  0  0  0  0
    2.7606    0.2486   -3.8789 C   0  0  0  0  0  0  0  0  0  0  0  0
    2.9668    0.6989    0.7836 C   0  0  0  0  0  0  0  0  0  0  0  0
    2.9729    2.0920    1.0425 C   0  0  0  0  0  0  0  0  0  0  0  0
    3.4819    2.6088    2.2277 C   0  0  0  0  0  0  0  0  0  0  0  0
    4.0090    1.7332    3.1983 C   0  0  0  0  0  0  0  0  0  0  0  0
    4.6101    1.9057    4.5058 C   0  0  0  0  0  0  0  0  0  0  0  0
    4.7987    3.1658    5.2462 C   0  0  0  0  0  0  0  0  0  0  0  0
    3.8570    4.2091    5.1460 C   0  0  0  0  0  0  0  0  0  0  0  0
    4.0205    5.4235    5.8146 C   0  0  0  0  0  0  0  0  0  0  0  0
    5.1367    5.6251    6.6274 C   0  0  0  0  0  0  0  0  0  0  0  0
    6.0788    4.6035    6.7744 C   0  0  0  0  0  0  0  0  0  0  0  0
    5.9131    3.3977    6.0867 C   0  0  0  0  0  0  0  0  0  0  0  0
    6.8223    2.3623    6.2307 O   0  0  0  0  0  0  0  0  0  0  0  0
    8.1572    2.6429    6.3069 C   0  0  1  0  0  0  0  0  0  0  0  0
    8.5184    2.9333    7.5844 F   0  0  0  0  0  0  0  0  0  0  0  0
    8.8169    1.5336    5.9501 F   0  0  0  0  0  0  0  0  0  0  0  0
    4.9615    0.6361    4.9264 C   0  0  0  0  0  0  0  0  0  0  0  0
    4.6137   -0.3133    3.9886 N   0  0  0  0  0  0  0  0  0  0  0  0
    4.8146   -1.7128    4.1425 C   0  0  0  0  0  0  0  0  0  0  0  0
    4.4032   -2.3509    5.3221 C   0  0  0  0  0  0  0  0  0  0  0  0
    4.6205   -3.7180    5.4976 C   0  0  0  0  0  0  0  0  0  0  0  0
    5.2329   -4.4425    4.4770 C   0  0  0  0  0  0  0  0  0  0  0  0
    5.4336   -5.7562    4.6372 F   0  0  0  0  0  0  0  0  0  0  0  0
    5.6421   -3.8304    3.2937 C   0  0  0  0  0  0  0  0  0  0  0  0
    5.4407   -2.4592    3.1327 C   0  0  0  0  0  0  0  0  0  0  0  0
    4.0213    0.3366    2.9092 C   0  0  0  0  0  0  0  0  0  0  0  0
    3.4858   -0.1876    1.7317 C   0  0  0  0  0  0  0  0  0  0  0  0
    2.5864    1.8730   -1.4823 H   0  0  0  0  0  0  0  0  0  0  0  0
    1.2210   -0.5118   -2.5954 H   0  0  0  0  0  0  0  0  0  0  0  0
    1.0390    2.3913   -3.5646 H   0  0  0  0  0  0  0  0  0  0  0  0
   -0.2607    1.4388   -2.8056 H   0  0  0  0  0  0  0  0  0  0  0  0
   -0.0329    1.4484   -5.5589 H   0  0  0  0  0  0  0  0  0  0  0  0
   -0.4114   -0.0863   -4.6881 H   0  0  0  0  0  0  0  0  0  0  0  0
    0.3332   -2.5365   -2.4937 H   0  0  0  0  0  0  0  0  0  0  0  0
    0.4707   -2.2065   -3.9924 H   0  0  0  0  0  0  0  0  0  0  0  0
    3.3515    1.1618   -4.0682 H   0  0  0  0  0  0  0  0  0  0  0  0
    3.4344   -0.6004   -3.6983 H   0  0  0  0  0  0  0  0  0  0  0  0
    2.5381    2.7873    0.3206 H   0  0  0  0  0  0  0  0  0  0  0  0
    3.4689    3.6864    2.3966 H   0  0  0  0  0  0  0  0  0  0  0  0
    2.9629    4.0489    4.5422 H   0  0  0  0  0  0  0  0  0  0  0  0
    3.2652    6.2060    5.7104 H   0  0  0  0  0  0  0  0  0  0  0  0
    5.2709    6.5656    7.1667 H   0  0  0  0  0  0  0  0  0  0  0  0
    6.9316    4.7300    7.4422 H   0  0  0  0  0  0  0  0  0  0  0  0
    8.4516    3.4902    5.6613 H   0  0  0  0  0  0  0  0  0  0  0  0
    5.4675    0.3366    5.8394 H   0  0  0  0  0  0  0  0  0  0  0  0
    3.9004   -1.7746    6.1011 H   0  0  0  0  0  0  0  0  0  0  0  0
    4.3078   -4.2320    6.4083 H   0  0  0  0  0  0  0  0  0  0  0  0
    6.1256   -4.4285    2.5193 H   0  0  0  0  0  0  0  0  0  0  0  0
    5.7839   -1.9627    2.2239 H   0  0  0  0  0  0  0  0  0  0  0  0
    3.4525   -1.2565    1.5207 H   0  0  0  0  0  0  0  0  0  0  0  0
  1  2  2  0
  2  3  1  0
  2 11  1  0
  3  4  1  0
  3 37  1  0
  4  5  1  0
  4 10  1  0
  4 38  1  1
  5  6  1  0
  5 39  1  0
  5 40  1  0
  6  7  1  0
  6 41  1  0
  6 42  1  0
  7  9  1  1
  7 10  1  0
  8 43  1  0
  8 44  1  0
 10 45  1  0
 10 46  1  0
 11 12  2  0
 11 36  1  0
 12 13  1  0
 12 47  1  0
 13 14  2  0
 13 48  1  0
 14 15  1  0
 14 35  1  0
 15 16  1  0
 15 26  2  0
 16 17  2  0
 16 21  1  0
 17 18  1  0
 17 49  1  0
 18 19  2  0
 18 50  1  0
 19 20  1  0
 19 51  1  0
 20 21  2  0
 20 52  1  0
 21 22  1  0
 22 23  1  0
 23 24  1  0
 23 25  1  0
 23 53  1  6
 26 27  1  0
 26 54  1  0
 27 28  1  0
 27 35  1  0
 28 29  2  0
 28 34  1  0
 29 30  1  0
 29 55  1  0
 30 31  2  0
 30 56  1  0
 31 32  1  0
 31 33  1  0
 33 34  2  0
 33 57  1  0
 34 58  1  0
 35 36  2  0
 36 59  1  0
M  CHG  2   7   1   9  -1
M  END

