
     RDKit          3D

 82 88  0  0  0  0  0  0  0  0999 V2000
    0.5219    0.3139    0.4072 C   0  0  0  0  0  0  0  0  0  0  0  0
    1.7130   -0.1408   -0.1906 O   0  0  0  0  0  0  0  0  0  0  0  0
    2.2210    0.5347   -1.2552 C   0  0  0  0  0  0  0  0  0  0  0  0
    1.6359    1.6723   -1.8316 C   0  0  0  0  0  0  0  0  0  0  0  0
    2.2449    2.2872   -2.9289 C   0  0  0  0  0  0  0  0  0  0  0  0
    3.4353    1.7938   -3.4865 C   0  0  0  0  0  0  0  0  0  0  0  0
    4.0474    2.4982   -4.6295 C   0  0  0  0  0  0  0  0  0  0  0  0
    3.8287    3.8410   -4.8071 N   0  0  0  0  0  0  0  0  0  0  0  0
    4.5257    4.2168   -5.8648 C   0  0  0  0  0  0  0  0  0  0  0  0
    4.5820    5.5739   -6.4092 C   0  0  0  0  0  0  0  0  0  0  0  0
    5.4122    5.9292   -7.4912 C   0  0  0  0  0  0  0  0  0  0  0  0
    5.4360    7.2293   -7.9828 C   0  0  0  0  0  0  0  0  0  0  0  0
    4.6313    8.2323   -7.4088 C   0  0  0  0  0  0  0  0  0  0  0  0
    4.6872    9.5893   -7.9535 C   0  0  0  0  0  0  0  0  0  0  0  0
    5.3850    9.9653   -9.0105 N   0  0  0  0  0  0  0  0  0  0  0  0
    5.1656   11.3079   -9.1887 C   0  0  0  0  0  0  0  0  0  0  0  0
    5.7783   12.0124  -10.3314 C   0  0  0  0  0  0  0  0  0  0  0  0
    5.1960   13.1455  -10.9363 C   0  0  0  0  0  0  0  0  0  0  0  0
    5.7921   13.7673  -12.0273 C   0  0  0  0  0  0  0  0  0  0  0  0
    6.9943   13.2719  -12.5616 C   0  0  0  0  0  0  0  0  0  0  0  0
    7.5031   13.9478  -13.6255 O   0  0  0  0  0  0  0  0  0  0  0  0
    8.6951   13.4939  -14.2220 C   0  0  0  0  0  0  0  0  0  0  0  0
    7.5789   12.1343  -11.9850 C   0  0  0  0  0  0  0  0  0  0  0  0
    6.9692   11.5192  -10.8882 C   0  0  0  0  0  0  0  0  0  0  0  0
    4.3087   11.7804   -8.1849 C   0  0  0  0  0  0  0  0  0  0  0  0
    3.7781   13.0991   -7.8100 C   0  0  0  0  0  0  0  0  0  0  0  0
    2.4460   13.2431   -7.3627 C   0  0  0  0  0  0  0  0  0  0  0  0
    1.9445   14.4763   -6.9634 C   0  0  0  0  0  0  0  0  0  0  0  0
    2.7591   15.6212   -7.0051 C   0  0  0  0  0  0  0  0  0  0  0  0
    2.1842   16.7815   -6.6029 O   0  0  0  0  0  0  0  0  0  0  0  0
    2.9393   17.9721   -6.6258 C   0  0  0  0  0  0  0  0  0  0  0  0
    4.0858   15.4992   -7.4493 C   0  0  0  0  0  0  0  0  0  0  0  0
    4.5808   14.2522   -7.8374 C   0  0  0  0  0  0  0  0  0  0  0  0
    4.0093   10.6600   -7.4325 N   0  0  0  0  0  0  0  0  0  0  0  0
    3.4716   10.6753   -6.5753 H   0  0  0  0  0  0  0  0  0  0  0  0
    3.8012    7.8770   -6.3267 C   0  0  0  0  0  0  0  0  0  0  0  0
    3.7774    6.5769   -5.8351 C   0  0  0  0  0  0  0  0  0  0  0  0
    5.2026    3.1458   -6.3866 N   0  0  0  0  0  0  0  0  0  0  0  0
    5.7391    3.1303   -7.2446 H   0  0  0  0  0  0  0  0  0  0  0  0
    4.9032    2.0254   -5.6341 C   0  0  0  0  0  0  0  0  0  0  0  0
    5.4329    0.7065   -6.0098 C   0  0  0  0  0  0  0  0  0  0  0  0
    6.7646    0.5620   -6.4578 C   0  0  0  0  0  0  0  0  0  0  0  0
    7.2651   -0.6714   -6.8580 C   0  0  0  0  0  0  0  0  0  0  0  0
    6.4497   -1.8157   -6.8165 C   0  0  0  0  0  0  0  0  0  0  0  0
    7.0237   -2.9762   -7.2197 O   0  0  0  0  0  0  0  0  0  0  0  0
    6.2671   -4.1658   -7.1994 C   0  0  0  0  0  0  0  0  0  0  0  0
    5.1234   -1.6932   -6.3714 C   0  0  0  0  0  0  0  0  0  0  0  0
    4.6294   -0.4461   -5.9824 C   0  0  0  0  0  0  0  0  0  0  0  0
    4.0179    0.6606   -2.8819 C   0  0  0  0  0  0  0  0  0  0  0  0
    3.4226    0.0391   -1.7903 C   0  0  0  0  0  0  0  0  0  0  0  0
    0.3061   -0.3707    1.2389 H   0  0  0  0  0  0  0  0  0  0  0  0
   -0.3286    0.2956   -0.2989 H   0  0  0  0  0  0  0  0  0  0  0  0
    0.6252    1.3393    0.8071 H   0  0  0  0  0  0  0  0  0  0  0  0
    0.7091    2.0893   -1.4364 H   0  0  0  0  0  0  0  0  0  0  0  0
    1.7943    3.1785   -3.3688 H   0  0  0  0  0  0  0  0  0  0  0  0
    6.0629    5.1860   -7.9602 H   0  0  0  0  0  0  0  0  0  0  0  0
    6.0793    7.4994   -8.8214 H   0  0  0  0  0  0  0  0  0  0  0  0
    4.2498   13.5367  -10.5588 H   0  0  0  0  0  0  0  0  0  0  0  0
    5.3363   14.6404  -12.4991 H   0  0  0  0  0  0  0  0  0  0  0  0
    8.9120   14.1794  -15.0527 H   0  0  0  0  0  0  0  0  0  0  0  0
    8.5925   12.4689  -14.6232 H   0  0  0  0  0  0  0  0  0  0  0  0
    9.5445   13.5114  -13.5147 H   0  0  0  0  0  0  0  0  0  0  0  0
    8.5059   11.7172  -12.3796 H   0  0  0  0  0  0  0  0  0  0  0  0
    7.4195   10.6278  -10.4481 H   0  0  0  0  0  0  0  0  0  0  0  0
    1.7828   12.3737   -7.3503 H   0  0  0  0  0  0  0  0  0  0  0  0
    0.9124   14.5858   -6.6245 H   0  0  0  0  0  0  0  0  0  0  0  0
    2.2751   18.7707   -6.2690 H   0  0  0  0  0  0  0  0  0  0  0  0
    3.2830   18.2221   -7.6458 H   0  0  0  0  0  0  0  0  0  0  0  0
    3.8188   17.9148   -5.9592 H   0  0  0  0  0  0  0  0  0  0  0  0
    4.7471   16.3651   -7.4863 H   0  0  0  0  0  0  0  0  0  0  0  0
    5.6202   14.1724   -8.1615 H   0  0  0  0  0  0  0  0  0  0  0  0
    3.1508    8.6204   -5.8573 H   0  0  0  0  0  0  0  0  0  0  0  0
    3.1341    6.3068   -4.9964 H   0  0  0  0  0  0  0  0  0  0  0  0
    7.4283    1.4310   -6.4702 H   0  0  0  0  0  0  0  0  0  0  0  0
    8.2970   -0.7814   -7.1974 H   0  0  0  0  0  0  0  0  0  0  0  0
    6.9301   -4.9644   -7.5584 H   0  0  0  0  0  0  0  0  0  0  0  0
    5.3873   -4.1059   -7.8654 H   0  0  0  0  0  0  0  0  0  0  0  0
    5.9235   -4.4179   -6.1798 H   0  0  0  0  0  0  0  0  0  0  0  0
    4.4617   -2.5588   -6.3340 H   0  0  0  0  0  0  0  0  0  0  0  0
    3.5903   -0.3658   -5.6576 H   0  0  0  0  0  0  0  0  0  0  0  0
    4.9637    0.2692   -3.2601 H   0  0  0  0  0  0  0  0  0  0  0  0
    3.8786   -0.8341   -1.3189 H   0  0  0  0  0  0  0  0  0  0  0  0
  1  2  1  0
  1 51  1  0
  1 52  1  0
  1 53  1  0
  2  3  1  0
  3  4  2  0
  3 50  1  0
  4  5  1  0
  4 54  1  0
  5  6  2  0
  5 55  1  0
  6  7  1  0
  6 49  1  0
  7  8  1  0
  7 40  2  0
  8  9  2  0
  9 10  1  0
  9 38  1  0
 10 11  2  0
 10 37  1  0
 11 12  1  0
 11 56  1  0
 12 13  2  0
 12 57  1  0
 13 14  1  0
 13 36  1  0
 14 15  2  0
 14 34  1  0
 15 16  1  0
 16 17  1  0
 16 25  2  0
 17 18  2  0
 17 24  1  0
 18 19  1  0
 18 58  1  0
 19 20  2  0
 19 59  1  0
 20 21  1  0
 20 23  1  0
 21 22  1  0
 22 60  1  0
 22 61  1  0
 22 62  1  0
 23 24  2  0
 23 63  1  0
 24 64  1  0
 25 26  1  0
 25 34  1  0
 26 27  2  0
 26 33  1  0
 27 28  1  0
 27 65  1  0
 28 29  2  0
 28 66  1  0
 29 30  1  0
 29 32  1  0
 30 31  1  0
 31 67  1  0
 31 68  1  0
 31 69  1  0
 32 33  2  0
 32 70  1  0
 33 71  1  0
 34 35  1  0
 36 37  2  0
 36 72  1  0
 37 73  1  0
 38 39  1  0
 38 40  1  0
 40 41  1  0
 41 42  2  0
 41 48  1  0
 42 43  1  0
 42 74  1  0
 43 44  2  0
 43 75  1  0
 44 45  1  0
 44 47  1  0
 45 46  1  0
 46 76  1  0
 46 77  1  0
 46 78  1  0
 47 48  2  0
 47 79  1  0
 48 80  1  0
 49 50  2  0
 49 81  1  0
 50 82  1  0
M  END

