
     RDKit          3D

 54 57  0  0  0  0  0  0  0  0999 V2000
   15.3873    6.7952   -2.1307 C   0  0  0  0  0  0  0  0  0  0  0  0
   14.4537    5.8392   -2.1657 C   0  0  0  0  0  0  0  0  0  0  0  0
   13.0316    6.1461   -1.8040 C   0  0  0  0  0  0  0  0  0  0  0  0
   12.6676    7.2540   -1.4472 O   0  0  0  0  0  0  0  0  0  0  0  0
   12.1952    5.0552   -1.9221 N   0  0  0  0  0  0  0  0  0  0  0  0
   10.8093    4.9670   -1.6957 C   0  0  0  0  0  0  0  0  0  0  0  0
   10.0244    6.0533   -1.2723 C   0  0  0  0  0  0  0  0  0  0  0  0
    8.6519    5.8621   -1.0922 C   0  0  0  0  0  0  0  0  0  0  0  0
    8.0465    4.6289   -1.3303 C   0  0  0  0  0  0  0  0  0  0  0  0
    8.8383    3.5541   -1.7529 C   0  0  0  0  0  0  0  0  0  0  0  0
    8.1707    2.3550   -1.9045 O   0  0  0  0  0  0  0  0  0  0  0  0
    8.4847    1.3727   -2.7875 C   0  0  0  0  0  0  0  0  0  0  0  0
    7.6681    0.2060   -2.6972 C   0  0  0  0  0  0  0  0  0  0  0  0
    7.8412   -0.8321   -3.5038 N   0  0  0  0  0  0  0  0  0  0  0  0
    8.8234   -0.6907   -4.3865 C   0  0  0  0  0  0  0  0  0  0  0  0
    9.2423   -1.5929   -5.3325 N   0  0  0  0  0  0  0  0  0  0  0  0
    8.8251   -2.5008   -5.4940 H   0  0  0  0  0  0  0  0  0  0  0  0
   10.2978   -1.0454   -6.0245 C   0  0  0  0  0  0  0  0  0  0  0  0
   10.6020    0.2253   -5.5501 C   0  0  0  0  0  0  0  0  0  0  0  0
   11.6735    1.1157   -6.0226 C   0  0  0  0  0  0  0  0  0  0  0  0
   11.6789    2.4848   -5.7077 C   0  0  0  0  0  0  0  0  0  0  0  0
   12.6950    3.3352   -6.1607 C   0  0  0  0  0  0  0  0  0  0  0  0
   13.7435    2.8449   -6.9485 C   0  0  0  0  0  0  0  0  0  0  0  0
   14.7751    3.5698   -7.4389 O   0  0  0  0  0  0  0  0  0  0  0  0
   14.8384    4.9568   -7.1685 C   0  0  0  0  0  0  0  0  0  0  0  0
   16.0839    5.4921   -7.8547 C   0  0  0  0  0  0  0  0  0  0  0  0
   16.1602    6.8649   -7.5797 O   0  0  0  0  0  0  0  0  0  0  0  0
   17.2635    7.5038   -8.1649 C   0  0  0  0  0  0  0  0  0  0  0  0
   13.7342    1.4698   -7.2608 C   0  0  0  0  0  0  0  0  0  0  0  0
   14.7340    0.9778   -8.0056 F   0  0  0  0  0  0  0  0  0  0  0  0
   12.7360    0.6240   -6.8118 C   0  0  0  0  0  0  0  0  0  0  0  0
    9.6481    0.4629   -4.4944 C   0  0  0  0  0  0  0  0  0  0  0  0
    9.4560    1.5060   -3.6657 N   0  0  0  0  0  0  0  0  0  0  0  0
   10.2141    3.7120   -1.9256 C   0  0  0  0  0  0  0  0  0  0  0  0
   16.4288    6.5930   -2.3917 H   0  0  0  0  0  0  0  0  0  0  0  0
   15.1093    7.8105   -1.8334 H   0  0  0  0  0  0  0  0  0  0  0  0
   14.7112    4.8156   -2.4606 H   0  0  0  0  0  0  0  0  0  0  0  0
   12.6281    4.1956   -2.2393 H   0  0  0  0  0  0  0  0  0  0  0  0
   10.4936    7.0179   -1.0976 H   0  0  0  0  0  0  0  0  0  0  0  0
    8.0389    6.7042   -0.7613 H   0  0  0  0  0  0  0  0  0  0  0  0
    6.9748    4.4764   -1.1934 H   0  0  0  0  0  0  0  0  0  0  0  0
    6.8756    0.1651   -1.9445 H   0  0  0  0  0  0  0  0  0  0  0  0
   10.7656   -1.6007   -6.8346 H   0  0  0  0  0  0  0  0  0  0  0  0
   10.8730    2.8955   -5.0996 H   0  0  0  0  0  0  0  0  0  0  0  0
   12.6570    4.3926   -5.8969 H   0  0  0  0  0  0  0  0  0  0  0  0
   14.8993    5.1503   -6.0816 H   0  0  0  0  0  0  0  0  0  0  0  0
   13.9448    5.4799   -7.5547 H   0  0  0  0  0  0  0  0  0  0  0  0
   16.0194    5.2951   -8.9449 H   0  0  0  0  0  0  0  0  0  0  0  0
   16.9758    4.9484   -7.4794 H   0  0  0  0  0  0  0  0  0  0  0  0
   17.2230    8.5668   -7.8862 H   0  0  0  0  0  0  0  0  0  0  0  0
   17.2486    7.4277   -9.2711 H   0  0  0  0  0  0  0  0  0  0  0  0
   18.2251    7.0813   -7.8085 H   0  0  0  0  0  0  0  0  0  0  0  0
   12.8148   -0.4315   -7.0788 H   0  0  0  0  0  0  0  0  0  0  0  0
   10.8210    2.8735   -2.2603 H   0  0  0  0  0  0  0  0  0  0  0  0
  1  2  2  0
  1 35  1  0
  1 36  1  0
  2  3  1  0
  2 37  1  0
  3  4  2  0
  3  5  1  0
  5  6  1  0
  5 38  1  0
  6  7  2  0
  6 34  1  0
  7  8  1  0
  7 39  1  0
  8  9  2  0
  8 40  1  0
  9 10  1  0
  9 41  1  0
 10 11  1  0
 10 34  2  0
 11 12  1  0
 12 13  2  0
 12 33  1  0
 13 14  1  0
 13 42  1  0
 14 15  2  0
 15 16  1  0
 15 32  1  0
 16 17  1  0
 16 18  1  0
 18 19  2  0
 18 43  1  0
 19 20  1  0
 19 32  1  0
 20 21  2  0
 20 31  1  0
 21 22  1  0
 21 44  1  0
 22 23  2  0
 22 45  1  0
 23 24  1  0
 23 29  1  0
 24 25  1  0
 25 26  1  0
 25 46  1  0
 25 47  1  0
 26 27  1  0
 26 48  1  0
 26 49  1  0
 27 28  1  0
 28 50  1  0
 28 51  1  0
 28 52  1  0
 29 30  1  0
 29 31  2  0
 31 53  1  0
 32 33  2  0
 34 54  1  0
M  END

