
     RDKit          3D

 44 46  0  0  0  0  0  0  0  0999 V2000
    2.4106   -0.1192   -7.6869 C   0  0  0  0  0  0  0  0  0  0  0  0
    2.3365   -0.2498   -6.2860 O   0  0  0  0  0  0  0  0  0  0  0  0
    3.0786   -1.2041   -5.6668 C   0  0  0  0  0  0  0  0  0  0  0  0
    2.9570   -1.2745   -4.2690 C   0  0  0  0  0  0  0  0  0  0  0  0
    3.6816   -2.2222   -3.5510 C   0  0  0  0  0  0  0  0  0  0  0  0
    4.5455   -3.1226   -4.1956 C   0  0  0  0  0  0  0  0  0  0  0  0
    5.3204   -4.1685   -3.4164 C   0  0  0  0  0  0  0  0  0  0  0  0
    4.7826   -5.5206   -3.5328 N   0  0  0  0  0  0  0  0  0  0  0  0
    5.2364   -6.3994   -4.4655 C   0  0  0  0  0  0  0  0  0  0  0  0
    6.1279   -6.1549   -5.2619 O   0  0  0  0  0  0  0  0  0  0  0  0
    4.5171   -7.7641   -4.4782 C   0  0  0  0  0  0  0  0  0  0  0  0
    4.6056   -8.5233   -3.2365 N   0  0  0  0  0  0  0  0  0  0  0  0
    3.8823   -8.2250   -2.0822 C   0  0  0  0  0  0  0  0  0  0  0  0
    3.0602   -7.3360   -1.9911 O   0  0  0  0  0  0  0  0  0  0  0  0
    4.3959   -9.1570   -1.0009 C   0  0  1  0  0  0  0  0  0  0  0  0
    5.2485   -8.6083   -0.5529 H   0  0  0  0  0  0  0  0  0  0  0  0
    3.5054   -9.6378    0.1353 C   0  0  0  0  0  0  0  0  0  0  0  0
    4.2284  -10.7538    0.8651 C   0  0  0  0  0  0  0  0  0  0  0  0
    5.3152  -11.3933    0.3990 C   0  0  0  0  0  0  0  0  0  0  0  0
    5.9472  -11.1441   -0.9569 C   0  0  0  0  0  0  0  0  0  0  0  0
    4.9721  -10.3304   -1.7948 C   0  0  2  0  0  0  0  0  0  0  0  0
    4.1253  -10.9928   -2.0650 H   0  0  0  0  0  0  0  0  0  0  0  0
    5.3845   -9.6978   -3.1133 C   0  0  0  0  0  0  0  0  0  0  0  0
    6.1474  -10.1058   -3.9502 O   0  0  0  0  0  0  0  0  0  0  0  0
    4.6606   -3.0408   -5.5902 C   0  0  0  0  0  0  0  0  0  0  0  0
    3.9387   -2.0967   -6.3270 C   0  0  0  0  0  0  0  0  0  0  0  0
    1.7357    0.7029   -7.9614 H   0  0  0  0  0  0  0  0  0  0  0  0
    2.0822   -1.0384   -8.2055 H   0  0  0  0  0  0  0  0  0  0  0  0
    3.4328    0.1307   -8.0251 H   0  0  0  0  0  0  0  0  0  0  0  0
    2.2870   -0.5713   -3.7701 H   0  0  0  0  0  0  0  0  0  0  0  0
    3.5754   -2.2598   -2.4624 H   0  0  0  0  0  0  0  0  0  0  0  0
    5.3415   -3.8984   -2.3488 H   0  0  0  0  0  0  0  0  0  0  0  0
    6.3586   -4.2125   -3.7751 H   0  0  0  0  0  0  0  0  0  0  0  0
    3.9588   -5.7768   -2.9912 H   0  0  0  0  0  0  0  0  0  0  0  0
    4.9920   -8.3647   -5.2625 H   0  0  0  0  0  0  0  0  0  0  0  0
    3.4517   -7.6102   -4.7165 H   0  0  0  0  0  0  0  0  0  0  0  0
    2.5299   -9.9922   -0.2477 H   0  0  0  0  0  0  0  0  0  0  0  0
    3.2718   -8.8149    0.8307 H   0  0  0  0  0  0  0  0  0  0  0  0
    3.8328  -11.0344    1.8470 H   0  0  0  0  0  0  0  0  0  0  0  0
    5.7805  -12.1635    1.0232 H   0  0  0  0  0  0  0  0  0  0  0  0
    6.1882  -12.1009   -1.4484 H   0  0  0  0  0  0  0  0  0  0  0  0
    6.9117  -10.6142   -0.8445 H   0  0  0  0  0  0  0  0  0  0  0  0
    5.3282   -3.7336   -6.1093 H   0  0  0  0  0  0  0  0  0  0  0  0
    4.0585   -2.0636   -7.4102 H   0  0  0  0  0  0  0  0  0  0  0  0
  1  2  1  0
  1 27  1  0
  1 28  1  0
  1 29  1  0
  2  3  1  0
  3  4  2  0
  3 26  1  0
  4  5  1  0
  4 30  1  0
  5  6  2  0
  5 31  1  0
  6  7  1  0
  6 25  1  0
  7  8  1  0
  7 32  1  0
  7 33  1  0
  8  9  1  0
  8 34  1  0
  9 10  2  0
  9 11  1  0
 11 12  1  0
 11 35  1  0
 11 36  1  0
 12 13  1  0
 12 23  1  0
 13 14  2  0
 13 15  1  0
 15 16  1  1
 15 17  1  0
 15 21  1  0
 17 18  1  0
 17 37  1  0
 17 38  1  0
 18 19  2  0
 18 39  1  0
 19 20  1  0
 19 40  1  0
 20 21  1  0
 20 41  1  0
 20 42  1  0
 21 22  1  6
 21 23  1  0
 23 24  2  0
 25 26  2  0
 25 43  1  0
 26 44  1  0
M  END

