
     RDKit          3D

 54 58  0  0  0  0  0  0  0  0999 V2000
    1.5047    0.4992    1.8537 C   0  0  0  0  0  0  0  0  0  0  0  0
    2.8695    0.3289    1.2339 C   0  0  0  0  0  0  0  0  0  0  0  0
    3.1668   -0.7608    0.4039 C   0  0  0  0  0  0  0  0  0  0  0  0
    4.4372   -0.9289   -0.1527 C   0  0  0  0  0  0  0  0  0  0  0  0
    5.4613   -0.0038    0.1112 C   0  0  0  0  0  0  0  0  0  0  0  0
    6.8109   -0.0890   -0.4675 C   0  0  0  0  0  0  0  0  0  0  0  0
    7.5886    0.9513   -0.6634 N   0  0  0  0  0  0  0  0  0  0  0  0
    8.7619    0.5276   -1.2201 N   0  0  0  0  0  0  0  0  0  0  0  0
    8.6869   -0.7742   -1.3615 C   0  0  0  0  0  0  0  0  0  0  0  0
    9.9194   -1.8509   -2.0089 S   0  0  0  0  0  0  0  0  0  0  0  0
   11.1834   -0.5774   -2.3444 C   0  0  0  0  0  0  0  0  0  0  0  0
   12.4068   -1.2347   -2.9509 C   0  0  0  0  0  0  0  0  0  0  0  0
   12.4863   -2.4233   -3.1670 O   0  0  0  0  0  0  0  0  0  0  0  0
   13.4090   -0.2592   -3.2177 N   0  0  0  0  0  0  0  0  0  0  0  0
   14.4636   -0.7742   -3.7153 N   0  0  0  0  0  0  0  0  0  0  0  0
   15.4941    0.0289   -4.0210 C   0  0  0  0  0  0  0  0  0  0  0  0
   16.6337   -0.6030   -4.5679 C   0  0  0  0  0  0  0  0  0  0  0  0
   16.7815   -1.8879   -4.8045 O   0  0  0  0  0  0  0  0  0  0  0  0
   17.5923    0.3065   -4.8299 N   0  0  0  0  0  0  0  0  0  0  0  0
   18.4999    0.0931   -5.2261 H   0  0  0  0  0  0  0  0  0  0  0  0
   17.1230    1.5856   -4.4645 C   0  0  0  0  0  0  0  0  0  0  0  0
   17.7641    2.8172   -4.5537 C   0  0  0  0  0  0  0  0  0  0  0  0
   17.0565    3.9423   -4.1133 C   0  0  0  0  0  0  0  0  0  0  0  0
   15.7530    3.8268   -3.6031 C   0  0  0  0  0  0  0  0  0  0  0  0
   15.1149    2.5857   -3.5163 C   0  0  0  0  0  0  0  0  0  0  0  0
   15.8058    1.4485   -3.9517 C   0  0  0  0  0  0  0  0  0  0  0  0
    7.4687   -1.2399   -0.9020 N   0  0  0  0  0  0  0  0  0  0  0  0
    7.0906   -2.6119   -0.7843 C   0  0  0  0  0  0  0  0  0  0  0  0
    6.9669   -3.1997    0.4811 C   0  0  0  0  0  0  0  0  0  0  0  0
    6.6024   -4.5406    0.5982 C   0  0  0  0  0  0  0  0  0  0  0  0
    6.3771   -5.2962   -0.5574 C   0  0  0  0  0  0  0  0  0  0  0  0
    5.9264   -6.9768   -0.4142 Cl  0  0  0  0  0  0  0  0  0  0  0  0
    6.5110   -4.7223   -1.8254 C   0  0  0  0  0  0  0  0  0  0  0  0
    6.8641   -3.3765   -1.9358 C   0  0  0  0  0  0  0  0  0  0  0  0
    5.1643    1.1010    0.9345 C   0  0  0  0  0  0  0  0  0  0  0  0
    3.8948    1.2595    1.4811 C   0  0  0  0  0  0  0  0  0  0  0  0
    0.7659   -0.1786    1.4011 H   0  0  0  0  0  0  0  0  0  0  0  0
    1.1363    1.5315    1.7384 H   0  0  0  0  0  0  0  0  0  0  0  0
    1.5301    0.2872    2.9369 H   0  0  0  0  0  0  0  0  0  0  0  0
    2.3865   -1.4929    0.1775 H   0  0  0  0  0  0  0  0  0  0  0  0
    4.6149   -1.7784   -0.8126 H   0  0  0  0  0  0  0  0  0  0  0  0
   11.4526   -0.0471   -1.4179 H   0  0  0  0  0  0  0  0  0  0  0  0
   10.7849    0.1925   -3.0228 H   0  0  0  0  0  0  0  0  0  0  0  0
   15.9352   -2.3002   -4.5199 H   0  0  0  0  0  0  0  0  0  0  0  0
   18.7781    2.9073   -4.9506 H   0  0  0  0  0  0  0  0  0  0  0  0
   17.5298    4.9254   -4.1691 H   0  0  0  0  0  0  0  0  0  0  0  0
   15.2286    4.7248   -3.2679 H   0  0  0  0  0  0  0  0  0  0  0  0
   14.1035    2.4850   -3.1219 H   0  0  0  0  0  0  0  0  0  0  0  0
    7.1542   -2.6012    1.3744 H   0  0  0  0  0  0  0  0  0  0  0  0
    6.4997   -5.0052    1.5799 H   0  0  0  0  0  0  0  0  0  0  0  0
    6.3363   -5.3258   -2.7172 H   0  0  0  0  0  0  0  0  0  0  0  0
    6.9674   -2.9155   -2.9197 H   0  0  0  0  0  0  0  0  0  0  0  0
    5.9501    1.8333    1.1267 H   0  0  0  0  0  0  0  0  0  0  0  0
    3.6921    2.1265    2.1169 H   0  0  0  0  0  0  0  0  0  0  0  0
  1  2  1  0
  1 37  1  0
  1 38  1  0
  1 39  1  0
  2  3  2  0
  2 36  1  0
  3  4  1  0
  3 40  1  0
  4  5  2  0
  4 41  1  0
  5  6  1  0
  5 35  1  0
  6  7  2  0
  6 27  1  0
  7  8  1  0
  8  9  2  0
  9 10  1  0
  9 27  1  0
 10 11  1  0
 11 12  1  0
 11 42  1  0
 11 43  1  0
 12 13  2  0
 12 14  1  0
 14 15  2  0
 15 16  1  0
 16 17  2  0
 16 26  1  0
 17 18  1  0
 17 19  1  0
 18 44  1  0
 19 20  1  0
 19 21  1  0
 21 22  1  0
 21 26  2  0
 22 23  2  0
 22 45  1  0
 23 24  1  0
 23 46  1  0
 24 25  2  0
 24 47  1  0
 25 26  1  0
 25 48  1  0
 27 28  1  0
 28 29  2  0
 28 34  1  0
 29 30  1  0
 29 49  1  0
 30 31  2  0
 30 50  1  0
 31 32  1  0
 31 33  1  0
 33 34  2  0
 33 51  1  0
 34 52  1  0
 35 36  2  0
 35 53  1  0
 36 54  1  0
M  END

