
     RDKit          3D

 70 73  0  0  0  0  0  0  0  0999 V2000
    0.7190   -1.1242   -1.6245 C   0  0  0  0  0  0  0  0  0  0  0  0
    1.7463   -0.5041   -1.2045 N   0  0  0  0  0  0  0  0  0  0  0  0
    2.7588   -1.1687   -0.4814 C   0  0  0  0  0  0  0  0  0  0  0  0
    2.4522   -1.9876    0.6920 C   0  0  0  0  0  0  0  0  0  0  0  0
    1.2637   -2.1402    1.3225 C   0  0  0  0  0  0  0  0  0  0  0  0
    1.0167   -2.9343    2.5291 C   0  0  0  0  0  0  0  0  0  0  0  0
    1.9981   -3.7237    3.1584 C   0  0  0  0  0  0  0  0  0  0  0  0
    1.6944   -4.4450    4.3092 C   0  0  0  0  0  0  0  0  0  0  0  0
    0.4122   -4.4260    4.8725 C   0  0  0  0  0  0  0  0  0  0  0  0
    0.1263   -5.2075    6.0201 N   0  0  0  0  0  0  0  0  0  0  0  0
   -0.5812   -4.8432    7.1433 C   0  0  0  0  0  0  0  0  0  0  0  0
   -0.5971   -5.7894    8.0479 N   0  0  0  0  0  0  0  0  0  0  0  0
    0.1245   -6.8386    7.5167 C   0  0  0  0  0  0  0  0  0  0  0  0
    0.3128   -8.1209    8.2643 C   0  0  0  0  0  0  0  0  0  0  0  0
    0.5862   -6.4964    6.2658 C   0  0  0  0  0  0  0  0  0  0  0  0
   -0.5899   -3.6412    4.2508 C   0  0  0  0  0  0  0  0  0  0  0  0
   -1.8183   -3.6541    4.8258 O   0  0  0  0  0  0  0  0  0  0  0  0
   -2.8817   -2.9492    4.2243 C   0  0  0  0  0  0  0  0  0  0  0  0
   -0.2740   -2.9114    3.1003 C   0  0  0  0  0  0  0  0  0  0  0  0
    4.0328   -1.0539   -0.7425 N   0  0  0  0  0  0  0  0  0  0  0  0
    4.6034   -0.3742   -1.7353 N   0  0  0  0  0  0  0  0  0  0  0  0
    4.0606    0.8473   -2.3477 C   0  0  0  0  0  0  0  0  0  0  0  0
    4.4904    2.0879   -1.5519 C   0  0  0  0  0  0  0  0  0  0  0  0
    6.0171    2.1484   -1.4030 C   0  0  0  0  0  0  0  0  0  0  0  0
    6.5876    0.8328   -0.8309 C   0  0  2  0  0  0  0  0  0  0  0  0
    8.1001    0.8228   -0.7140 C   0  0  0  0  0  0  0  0  0  0  0  0
    8.7221    0.5965    0.5222 C   0  0  0  0  0  0  0  0  0  0  0  0
   10.1147    0.5695    0.6403 C   0  0  0  0  0  0  0  0  0  0  0  0
   10.9454    0.7637   -0.4721 C   0  0  0  0  0  0  0  0  0  0  0  0
   12.4623    0.7327   -0.3331 C   0  0  1  0  0  0  0  0  0  0  0  0
   13.0924   -0.4138   -1.1429 C   0  0  0  0  0  0  0  0  0  0  0  0
   13.1017    2.0856   -0.6911 C   0  0  0  0  0  0  0  0  0  0  0  0
   10.3227    0.9875   -1.7118 C   0  0  0  0  0  0  0  0  0  0  0  0
    8.9325    1.0169   -1.8306 C   0  0  0  0  0  0  0  0  0  0  0  0
    6.0628   -0.3660   -1.6601 C   0  0  0  0  0  0  0  0  0  0  0  0
   -0.0530   -0.5679   -2.1766 H   0  0  0  0  0  0  0  0  0  0  0  0
    0.5519   -2.2071   -1.4824 H   0  0  0  0  0  0  0  0  0  0  0  0
    3.3511   -2.4589    1.0975 H   0  0  0  0  0  0  0  0  0  0  0  0
    0.3853   -1.6191    0.9297 H   0  0  0  0  0  0  0  0  0  0  0  0
    3.0101   -3.7733    2.7541 H   0  0  0  0  0  0  0  0  0  0  0  0
    2.4692   -5.0376    4.7993 H   0  0  0  0  0  0  0  0  0  0  0  0
   -1.0533   -3.8667    7.2246 H   0  0  0  0  0  0  0  0  0  0  0  0
   -0.6584   -8.5927    8.4883 H   0  0  0  0  0  0  0  0  0  0  0  0
    0.8114   -7.9418    9.2314 H   0  0  0  0  0  0  0  0  0  0  0  0
    0.9198   -8.8363    7.6898 H   0  0  0  0  0  0  0  0  0  0  0  0
    1.1591   -7.0488    5.5260 H   0  0  0  0  0  0  0  0  0  0  0  0
   -3.7671   -3.1347    4.8467 H   0  0  0  0  0  0  0  0  0  0  0  0
   -3.0818   -3.3075    3.1988 H   0  0  0  0  0  0  0  0  0  0  0  0
   -2.6880   -1.8621    4.1913 H   0  0  0  0  0  0  0  0  0  0  0  0
   -1.0424   -2.3060    2.6193 H   0  0  0  0  0  0  0  0  0  0  0  0
    2.9701    0.7710   -2.4027 H   0  0  0  0  0  0  0  0  0  0  0  0
    4.4688    0.9029   -3.3728 H   0  0  0  0  0  0  0  0  0  0  0  0
    4.0121    2.0555   -0.5575 H   0  0  0  0  0  0  0  0  0  0  0  0
    4.1159    2.9958   -2.0545 H   0  0  0  0  0  0  0  0  0  0  0  0
    6.3126    2.9933   -0.7596 H   0  0  0  0  0  0  0  0  0  0  0  0
    6.4683    2.3415   -2.3933 H   0  0  0  0  0  0  0  0  0  0  0  0
    6.1731    0.7011    0.1840 H   0  0  0  0  0  0  0  0  0  0  0  0
    8.1047    0.4396    1.4117 H   0  0  0  0  0  0  0  0  0  0  0  0
   10.5654    0.3931    1.6217 H   0  0  0  0  0  0  0  0  0  0  0  0
   12.6784    0.5394    0.7322 H   0  0  0  0  0  0  0  0  0  0  0  0
   12.9291   -0.2793   -2.2250 H   0  0  0  0  0  0  0  0  0  0  0  0
   12.6632   -1.3874   -0.8592 H   0  0  0  0  0  0  0  0  0  0  0  0
   14.1811   -0.4586   -0.9752 H   0  0  0  0  0  0  0  0  0  0  0  0
   12.9386    2.3395   -1.7515 H   0  0  0  0  0  0  0  0  0  0  0  0
   14.1905    2.0612   -0.5198 H   0  0  0  0  0  0  0  0  0  0  0  0
   12.6791    2.9014   -0.0840 H   0  0  0  0  0  0  0  0  0  0  0  0
   10.9317    1.1437   -2.6067 H   0  0  0  0  0  0  0  0  0  0  0  0
    8.4928    1.1973   -2.8155 H   0  0  0  0  0  0  0  0  0  0  0  0
    6.3835   -1.3170   -1.2164 H   0  0  0  0  0  0  0  0  0  0  0  0
    6.4607   -0.3132   -2.6887 H   0  0  0  0  0  0  0  0  0  0  0  0
  1  2  2  0
  1 36  1  0
  1 37  1  0
  2  3  1  0
  3  4  1  0
  3 20  2  0
  4  5  2  0
  4 38  1  0
  5  6  1  0
  5 39  1  0
  6  7  2  0
  6 19  1  0
  7  8  1  0
  7 40  1  0
  8  9  2  0
  8 41  1  0
  9 10  1  0
  9 16  1  0
 10 11  1  0
 10 15  1  0
 11 12  2  0
 11 42  1  0
 12 13  1  0
 13 14  1  0
 13 15  2  0
 14 43  1  0
 14 44  1  0
 14 45  1  0
 15 46  1  0
 16 17  1  0
 16 19  2  0
 17 18  1  0
 18 47  1  0
 18 48  1  0
 18 49  1  0
 19 50  1  0
 20 21  1  0
 21 22  1  0
 21 35  1  0
 22 23  1  0
 22 51  1  0
 22 52  1  0
 23 24  1  0
 23 53  1  0
 23 54  1  0
 24 25  1  0
 24 55  1  0
 24 56  1  0
 25 26  1  0
 25 35  1  0
 25 57  1  1
 26 27  2  0
 26 34  1  0
 27 28  1  0
 27 58  1  0
 28 29  2  0
 28 59  1  0
 29 30  1  0
 29 33  1  0
 30 31  1  0
 30 32  1  0
 30 60  1  1
 31 61  1  0
 31 62  1  0
 31 63  1  0
 32 64  1  0
 32 65  1  0
 32 66  1  0
 33 34  2  0
 33 67  1  0
 34 68  1  0
 35 69  1  0
 35 70  1  0
M  END

