
     RDKit          3D

 44 45  0  0  0  0  0  0  0  0999 V2000
    1.7224    0.5130   -0.0785 C   0  0  0  0  0  0  0  0  0  0  0  0
    3.1181    0.0192    0.1182 C   0  0  0  0  0  0  0  0  0  0  0  0
    4.1638    0.7318   -0.2460 N   0  0  0  0  0  0  0  0  0  0  0  0
    5.2838    0.0014    0.0791 N   0  0  0  0  0  0  0  0  0  0  0  0
    6.6497    0.4687   -0.2106 C   0  0  1  0  0  0  0  0  0  0  0  0
    7.2108   -0.1753   -1.4974 C   0  0  0  0  0  0  0  0  0  0  0  0
    6.6746    0.4411   -2.7968 C   0  0  2  0  0  0  0  0  0  0  0  0
    7.2815   -0.2379   -4.0269 C   0  0  0  0  0  0  0  0  0  0  0  0
    6.9221    1.9572   -2.7792 C   0  0  0  0  0  0  0  0  0  0  0  0
    6.2864    2.6109   -1.5477 C   0  0  0  0  0  0  0  0  0  0  0  0
    6.7647    2.0191   -0.2025 C   0  0  2  0  0  0  0  0  0  0  0  0
    8.2011    2.4458    0.2422 C   0  0  1  0  0  0  0  0  0  0  0  0
    8.5260    3.9126   -0.0747 C   0  0  0  0  0  0  0  0  0  0  0  0
    8.4148    2.2006    1.7457 C   0  0  0  0  0  0  0  0  0  0  0  0
    4.9654   -1.1863    0.6455 C   0  0  0  0  0  0  0  0  0  0  0  0
    5.8421   -2.1440    1.0298 N   0  0  0  0  0  0  0  0  0  0  0  0
    3.5558   -1.2156    0.6929 C   0  0  0  0  0  0  0  0  0  0  0  0
    2.7909   -2.2589    1.2541 N   0  0  0  0  0  0  0  0  0  0  0  0
    1.5686   -2.1632    1.2515 O   0  0  0  0  0  0  0  0  0  0  0  0
    3.4010   -3.2307    1.7286 O   0  0  0  0  0  0  0  0  0  0  0  0
    1.7472    1.5059   -0.5479 H   0  0  0  0  0  0  0  0  0  0  0  0
    1.1873    0.5727    0.8814 H   0  0  0  0  0  0  0  0  0  0  0  0
    1.1455   -0.1789   -0.7109 H   0  0  0  0  0  0  0  0  0  0  0  0
    7.2491    0.0921    0.6333 H   0  0  0  0  0  0  0  0  0  0  0  0
    7.0140   -1.2603   -1.4714 H   0  0  0  0  0  0  0  0  0  0  0  0
    8.3101   -0.0640   -1.4801 H   0  0  0  0  0  0  0  0  0  0  0  0
    5.5807    0.2832   -2.8204 H   0  0  0  0  0  0  0  0  0  0  0  0
    8.3777   -0.1104   -4.0514 H   0  0  0  0  0  0  0  0  0  0  0  0
    6.8768    0.1902   -4.9582 H   0  0  0  0  0  0  0  0  0  0  0  0
    7.0715   -1.3200   -4.0365 H   0  0  0  0  0  0  0  0  0  0  0  0
    6.5092    2.4138   -3.6949 H   0  0  0  0  0  0  0  0  0  0  0  0
    8.0127    2.1447   -2.8083 H   0  0  0  0  0  0  0  0  0  0  0  0
    5.1985    2.4643   -1.5975 H   0  0  0  0  0  0  0  0  0  0  0  0
    6.4532    3.6979   -1.5583 H   0  0  0  0  0  0  0  0  0  0  0  0
    6.0723    2.3873    0.5733 H   0  0  0  0  0  0  0  0  0  0  0  0
    8.9351    1.8265   -0.3060 H   0  0  0  0  0  0  0  0  0  0  0  0
    7.7813    4.5928    0.3729 H   0  0  0  0  0  0  0  0  0  0  0  0
    8.5607    4.1154   -1.1548 H   0  0  0  0  0  0  0  0  0  0  0  0
    9.5101    4.1831    0.3404 H   0  0  0  0  0  0  0  0  0  0  0  0
    7.7528    2.8501    2.3432 H   0  0  0  0  0  0  0  0  0  0  0  0
    9.4529    2.4255    2.0382 H   0  0  0  0  0  0  0  0  0  0  0  0
    8.2136    1.1607    2.0479 H   0  0  0  0  0  0  0  0  0  0  0  0
    6.8175   -1.9226    1.1738 H   0  0  0  0  0  0  0  0  0  0  0  0
    5.4141   -2.9089    1.5475 H   0  0  0  0  0  0  0  0  0  0  0  0
  1  2  1  0
  1 21  1  0
  1 22  1  0
  1 23  1  0
  2  3  2  0
  2 17  1  0
  3  4  1  0
  4  5  1  0
  4 15  1  0
  5  6  1  0
  5 11  1  0
  5 24  1  1
  6  7  1  0
  6 25  1  0
  6 26  1  0
  7  8  1  0
  7  9  1  0
  7 27  1  6
  8 28  1  0
  8 29  1  0
  8 30  1  0
  9 10  1  0
  9 31  1  0
  9 32  1  0
 10 11  1  0
 10 33  1  0
 10 34  1  0
 11 12  1  0
 11 35  1  1
 12 13  1  0
 12 14  1  0
 12 36  1  6
 13 37  1  0
 13 38  1  0
 13 39  1  0
 14 40  1  0
 14 41  1  0
 14 42  1  0
 15 16  1  0
 15 17  2  0
 16 43  1  0
 16 44  1  0
 17 18  1  0
 18 19  2  0
 18 20  1  0
M  CHG  2  18   1  20  -1
M  END

