
     RDKit          3D

 14 14  0  0  0  0  0  0  0  0999 V2000
    1.0621    0.2980    0.4605 N   0  0  0  0  0  0  0  0  0  0  0  0
    2.1900    0.0890    0.2928 C   0  0  0  0  0  0  0  0  0  0  0  0
    3.6161   -0.0133    0.0825 C   0  0  0  0  0  0  0  0  0  0  0  0
    4.2574    1.1633    0.0214 N   0  0  0  0  0  0  0  0  0  0  0  0
    5.5533    1.1725   -0.1679 C   0  0  0  0  0  0  0  0  0  0  0  0
    6.1352    2.3594   -0.2210 F   0  0  0  0  0  0  0  0  0  0  0  0
    6.3513    0.0286   -0.3199 C   0  0  0  0  0  0  0  0  0  0  0  0
    5.7047   -1.1955   -0.2598 C   0  0  0  0  0  0  0  0  0  0  0  0
    4.3204   -1.2250   -0.0550 C   0  0  0  0  0  0  0  0  0  0  0  0
    3.6538   -2.5410    0.0076 N   0  0  0  0  0  0  0  0  0  0  0  0
    2.4575   -2.5536    0.2273 O   0  0  0  0  0  0  0  0  0  0  0  0
    4.3552   -3.5235   -0.1647 O   0  0  0  0  0  0  0  0  0  0  0  0
    7.4267    0.1179   -0.4774 H   0  0  0  0  0  0  0  0  0  0  0  0
    6.2366   -2.1409   -0.3668 H   0  0  0  0  0  0  0  0  0  0  0  0
  1  2  3  0
  2  3  1  0
  3  4  2  0
  3  9  1  0
  4  5  1  0
  5  6  1  0
  5  7  2  0
  7  8  1  0
  7 13  1  0
  8  9  2  0
  8 14  1  0
  9 10  1  0
 10 11  2  0
 10 12  1  0
M  CHG  2  10   1  12  -1
M  END

