
     RDKit          3D

 43 46  0  0  0  0  0  0  0  0999 V2000
    3.6192   -1.7405    3.1063 C   0  0  0  0  0  0  0  0  0  0  0  0
    4.2346   -0.9511    2.0082 C   0  0  0  0  0  0  0  0  0  0  0  0
    4.5694    0.3638    1.8861 C   0  0  0  0  0  0  0  0  0  0  0  0
    5.1426    0.5228    0.5634 C   0  0  0  0  0  0  0  0  0  0  0  0
    5.7130    1.5544   -0.2427 C   0  0  0  0  0  0  0  0  0  0  0  0
    5.8393    2.8701    0.1714 N   0  0  0  0  0  0  0  0  0  0  0  0
    6.3220    3.8909   -0.7726 C   0  0  0  0  0  0  0  0  0  0  0  0
    6.1673    5.1985    0.0085 C   0  0  0  0  0  0  0  0  0  0  0  0
    4.9249    4.9389    0.8683 C   0  0  0  0  0  0  0  0  0  0  0  0
    5.0819    3.4554    1.2767 C   0  0  2  0  0  0  0  0  0  0  0  0
    5.7547    3.3378    2.6597 C   0  0  0  0  0  0  0  0  0  0  0  0
    5.1203    3.5846    3.6748 O   0  0  0  0  0  0  0  0  0  0  0  0
    7.0696    2.9938    2.6464 N   0  0  0  0  0  0  0  0  0  0  0  0
    7.8355    2.7898    3.8673 C   0  0  0  0  0  0  0  0  0  0  0  0
    8.1963    1.3624    4.1184 C   0  0  0  0  0  0  0  0  0  0  0  0
    7.8168    0.4418    5.0564 C   0  0  0  0  0  0  0  0  0  0  0  0
    8.5188   -0.7706    4.7425 C   0  0  0  0  0  0  0  0  0  0  0  0
    9.2666   -0.4952    3.6346 C   0  0  0  0  0  0  0  0  0  0  0  0
    9.0819    0.7940    3.2501 O   0  0  0  0  0  0  0  0  0  0  0  0
    6.1853    1.2794   -1.4629 N   0  0  0  0  0  0  0  0  0  0  0  0
    6.1265    0.0329   -1.9553 C   0  0  0  0  0  0  0  0  0  0  0  0
    5.5883   -1.0582   -1.2806 C   0  0  0  0  0  0  0  0  0  0  0  0
    5.1029   -0.7638   -0.0053 C   0  0  0  0  0  0  0  0  0  0  0  0
    4.5518   -1.6458    0.8624 O   0  0  0  0  0  0  0  0  0  0  0  0
    3.4052   -1.0908    3.9656 H   0  0  0  0  0  0  0  0  0  0  0  0
    4.2913   -2.5498    3.4382 H   0  0  0  0  0  0  0  0  0  0  0  0
    2.6768   -2.2113    2.7791 H   0  0  0  0  0  0  0  0  0  0  0  0
    4.4229    1.1094    2.6622 H   0  0  0  0  0  0  0  0  0  0  0  0
    5.7091    3.8833   -1.6920 H   0  0  0  0  0  0  0  0  0  0  0  0
    7.3542    3.6779   -1.0878 H   0  0  0  0  0  0  0  0  0  0  0  0
    6.0628    6.0707   -0.6536 H   0  0  0  0  0  0  0  0  0  0  0  0
    7.0462    5.3707    0.6513 H   0  0  0  0  0  0  0  0  0  0  0  0
    4.0117    5.0506    0.2617 H   0  0  0  0  0  0  0  0  0  0  0  0
    4.8276    5.5956    1.7439 H   0  0  0  0  0  0  0  0  0  0  0  0
    4.0936    2.9851    1.3882 H   0  0  0  0  0  0  0  0  0  0  0  0
    7.4631    2.7041    1.7565 H   0  0  0  0  0  0  0  0  0  0  0  0
    7.2140    3.1561    4.6950 H   0  0  0  0  0  0  0  0  0  0  0  0
    8.7532    3.4030    3.8285 H   0  0  0  0  0  0  0  0  0  0  0  0
    7.1179    0.6113    5.8728 H   0  0  0  0  0  0  0  0  0  0  0  0
    8.4709   -1.7197    5.2724 H   0  0  0  0  0  0  0  0  0  0  0  0
    9.9518   -1.0831    3.0295 H   0  0  0  0  0  0  0  0  0  0  0  0
    6.5381   -0.1007   -2.9625 H   0  0  0  0  0  0  0  0  0  0  0  0
    5.5529   -2.0606   -1.7071 H   0  0  0  0  0  0  0  0  0  0  0  0
  1  2  1  0
  1 25  1  0
  1 26  1  0
  1 27  1  0
  2  3  2  0
  2 24  1  0
  3  4  1  0
  3 28  1  0
  4  5  2  0
  4 23  1  0
  5  6  1  0
  5 20  1  0
  6  7  1  0
  6 10  1  0
  7  8  1  0
  7 29  1  0
  7 30  1  0
  8  9  1  0
  8 31  1  0
  8 32  1  0
  9 10  1  0
  9 33  1  0
  9 34  1  0
 10 11  1  0
 10 35  1  1
 11 12  2  0
 11 13  1  0
 13 14  1  0
 13 36  1  0
 14 15  1  0
 14 37  1  0
 14 38  1  0
 15 16  2  0
 15 19  1  0
 16 17  1  0
 16 39  1  0
 17 18  2  0
 17 40  1  0
 18 19  1  0
 18 41  1  0
 20 21  2  0
 21 22  1  0
 21 42  1  0
 22 23  2  0
 22 43  1  0
 23 24  1  0
M  END

