
     RDKit          3D

 43 46  0  0  0  0  0  0  0  0999 V2000
    6.8834    2.9057    0.5409 N   0  0  0  0  0  0  0  0  0  0  0  0
    6.2274    1.9964    0.2310 C   0  0  0  0  0  0  0  0  0  0  0  0
    5.3702    0.9169   -0.1428 C   0  0  0  0  0  0  0  0  0  0  0  0
    5.8704   -0.3389   -0.4502 C   0  0  0  0  0  0  0  0  0  0  0  0
    5.0032   -1.3876   -0.8231 C   0  0  0  0  0  0  0  0  0  0  0  0
    5.4816   -2.6975   -1.1509 C   0  0  0  0  0  0  0  0  0  0  0  0
    4.5519   -3.6353   -1.4996 C   0  0  0  0  0  0  0  0  0  0  0  0
    3.1655   -3.3373   -1.5390 C   0  0  0  0  0  0  0  0  0  0  0  0
    2.6634   -2.1002   -1.2322 C   0  0  0  0  0  0  0  0  0  0  0  0
    3.5954   -1.0806   -0.8609 C   0  0  0  0  0  0  0  0  0  0  0  0
    3.1134    0.1461   -0.5524 N   0  0  0  0  0  0  0  0  0  0  0  0
    3.9368    1.1239   -0.2106 C   0  0  0  0  0  0  0  0  0  0  0  0
    3.4173    2.3518    0.0703 N   0  0  0  0  0  0  0  0  0  0  0  0
    2.0011    2.6536    0.0169 C   0  0  0  0  0  0  0  0  0  0  0  0
    1.2438    2.2236    1.2884 C   0  0  0  0  0  0  0  0  0  0  0  0
   -0.1725    2.5311    1.2256 N   0  0  0  0  0  0  0  0  0  0  0  0
   -0.6335    3.7867    1.4803 C   0  0  0  0  0  0  0  0  0  0  0  0
    0.1202    4.7062    1.7737 O   0  0  0  0  0  0  0  0  0  0  0  0
   -2.1282    4.0204    1.4019 C   0  0  0  0  0  0  0  0  0  0  0  0
   -2.5721    5.3215    1.6984 C   0  0  0  0  0  0  0  0  0  0  0  0
   -3.9227    5.6616    1.6629 C   0  0  0  0  0  0  0  0  0  0  0  0
   -4.8754    4.6945    1.3236 C   0  0  0  0  0  0  0  0  0  0  0  0
   -4.4689    3.3938    1.0224 C   0  0  0  0  0  0  0  0  0  0  0  0
   -3.1134    3.0806    1.0665 C   0  0  0  0  0  0  0  0  0  0  0  0
   -2.7706    1.8045    0.7649 F   0  0  0  0  0  0  0  0  0  0  0  0
    2.4865   -4.4541   -1.9095 O   0  0  0  0  0  0  0  0  0  0  0  0
    3.4530   -5.4709   -2.1676 C   0  0  0  0  0  0  0  0  0  0  0  0
    4.7330   -4.9440   -1.8443 O   0  0  0  0  0  0  0  0  0  0  0  0
    6.9479   -0.5143   -0.4047 H   0  0  0  0  0  0  0  0  0  0  0  0
    6.5474   -2.9295   -1.1202 H   0  0  0  0  0  0  0  0  0  0  0  0
    1.5985   -1.8729   -1.2635 H   0  0  0  0  0  0  0  0  0  0  0  0
    4.0555    3.0764    0.3761 H   0  0  0  0  0  0  0  0  0  0  0  0
    1.5617    2.1457   -0.8546 H   0  0  0  0  0  0  0  0  0  0  0  0
    1.8845    3.7389   -0.1153 H   0  0  0  0  0  0  0  0  0  0  0  0
    1.6796    2.7393    2.1578 H   0  0  0  0  0  0  0  0  0  0  0  0
    1.3596    1.1393    1.4286 H   0  0  0  0  0  0  0  0  0  0  0  0
   -0.8269    1.8093    0.9537 H   0  0  0  0  0  0  0  0  0  0  0  0
   -1.8038    6.0520    1.9584 H   0  0  0  0  0  0  0  0  0  0  0  0
   -4.2349    6.6812    1.8995 H   0  0  0  0  0  0  0  0  0  0  0  0
   -5.9375    4.9494    1.2919 H   0  0  0  0  0  0  0  0  0  0  0  0
   -5.1808    2.6115    0.7527 H   0  0  0  0  0  0  0  0  0  0  0  0
    3.4194   -5.7488   -3.2373 H   0  0  0  0  0  0  0  0  0  0  0  0
    3.2397   -6.3513   -1.5371 H   0  0  0  0  0  0  0  0  0  0  0  0
  1  2  3  0
  2  3  1  0
  3  4  2  0
  3 12  1  0
  4  5  1  0
  4 29  1  0
  5  6  2  0
  5 10  1  0
  6  7  1  0
  6 30  1  0
  7  8  2  0
  7 28  1  0
  8  9  1  0
  8 26  1  0
  9 10  2  0
  9 31  1  0
 10 11  1  0
 11 12  2  0
 12 13  1  0
 13 14  1  0
 13 32  1  0
 14 15  1  0
 14 33  1  0
 14 34  1  0
 15 16  1  0
 15 35  1  0
 15 36  1  0
 16 17  1  0
 16 37  1  0
 17 18  2  0
 17 19  1  0
 19 20  2  0
 19 24  1  0
 20 21  1  0
 20 38  1  0
 21 22  2  0
 21 39  1  0
 22 23  1  0
 22 40  1  0
 23 24  2  0
 23 41  1  0
 24 25  1  0
 26 27  1  0
 27 28  1  0
 27 42  1  0
 27 43  1  0
M  END

