
     RDKit          3D

 36 38  0  0  0  0  0  0  0  0999 V2000
    8.3612   -0.3573   -0.8303 C   0  0  0  0  0  0  0  0  0  0  0  0
    7.1364   -1.2439   -0.6003 C   0  0  1  0  0  0  0  0  0  0  0  0
    7.0791   -1.7786    0.8465 C   0  0  0  0  0  0  0  0  0  0  0  0
    5.8478   -0.4873   -0.9167 C   0  0  0  0  0  0  0  0  0  0  0  0
    5.7980    0.7206   -0.9744 O   0  0  0  0  0  0  0  0  0  0  0  0
    4.5371   -1.2834   -1.1134 C   0  0  0  0  0  0  0  0  0  0  0  0
    4.6586   -2.5544   -1.7832 N   0  0  0  0  0  0  0  0  0  0  0  0
    4.4130   -3.8175   -1.2478 C   0  0  0  0  0  0  0  0  0  0  0  0
    4.0139   -4.1824    0.0449 C   0  0  0  0  0  0  0  0  0  0  0  0
    3.8334   -5.5400    0.3166 C   0  0  0  0  0  0  0  0  0  0  0  0
    4.0430   -6.5196   -0.6714 C   0  0  0  0  0  0  0  0  0  0  0  0
    4.4344   -6.1542   -1.9591 C   0  0  0  0  0  0  0  0  0  0  0  0
    4.6206   -4.7976   -2.2598 C   0  0  0  0  0  0  0  0  0  0  0  0
    4.9984   -4.0801   -3.4627 C   0  0  0  0  0  0  0  0  0  0  0  0
    5.3190   -4.4699   -4.7706 C   0  0  0  0  0  0  0  0  0  0  0  0
    5.6335   -3.4908   -5.7134 C   0  0  0  0  0  0  0  0  0  0  0  0
    5.6297   -2.1278   -5.3625 C   0  0  0  0  0  0  0  0  0  0  0  0
    5.3157   -1.7108   -4.0673 C   0  0  0  0  0  0  0  0  0  0  0  0
    5.0026   -2.6989   -3.1245 C   0  0  0  0  0  0  0  0  0  0  0  0
    9.2854   -0.9144   -0.6119 H   0  0  0  0  0  0  0  0  0  0  0  0
    8.3273    0.5325   -0.1839 H   0  0  0  0  0  0  0  0  0  0  0  0
    8.4105   -0.0050   -1.8718 H   0  0  0  0  0  0  0  0  0  0  0  0
    7.1798   -2.1154   -1.2757 H   0  0  0  0  0  0  0  0  0  0  0  0
    6.9896   -0.9492    1.5672 H   0  0  0  0  0  0  0  0  0  0  0  0
    8.0041   -2.3285    1.0794 H   0  0  0  0  0  0  0  0  0  0  0  0
    6.2393   -2.4713    1.0061 H   0  0  0  0  0  0  0  0  0  0  0  0
    3.8479   -0.6130   -1.6528 H   0  0  0  0  0  0  0  0  0  0  0  0
    4.0988   -1.4482   -0.1169 H   0  0  0  0  0  0  0  0  0  0  0  0
    3.8388   -3.4381    0.8244 H   0  0  0  0  0  0  0  0  0  0  0  0
    3.5211   -5.8445    1.3187 H   0  0  0  0  0  0  0  0  0  0  0  0
    3.8941   -7.5736   -0.4258 H   0  0  0  0  0  0  0  0  0  0  0  0
    4.5910   -6.9160   -2.7270 H   0  0  0  0  0  0  0  0  0  0  0  0
    5.3204   -5.5268   -5.0489 H   0  0  0  0  0  0  0  0  0  0  0  0
    5.8844   -3.7823   -6.7359 H   0  0  0  0  0  0  0  0  0  0  0  0
    5.8769   -1.3776   -6.1178 H   0  0  0  0  0  0  0  0  0  0  0  0
    5.3166   -0.6502   -3.8079 H   0  0  0  0  0  0  0  0  0  0  0  0
  1  2  1  0
  1 20  1  0
  1 21  1  0
  1 22  1  0
  2  3  1  0
  2  4  1  0
  2 23  1  6
  3 24  1  0
  3 25  1  0
  3 26  1  0
  4  5  2  0
  4  6  1  0
  6  7  1  0
  6 27  1  0
  6 28  1  0
  7  8  1  0
  7 19  1  0
  8  9  2  0
  8 13  1  0
  9 10  1  0
  9 29  1  0
 10 11  2  0
 10 30  1  0
 11 12  1  0
 11 31  1  0
 12 13  2  0
 12 32  1  0
 13 14  1  0
 14 15  1  0
 14 19  2  0
 15 16  2  0
 15 33  1  0
 16 17  1  0
 16 34  1  0
 17 18  2  0
 17 35  1  0
 18 19  1  0
 18 36  1  0
M  END

