
     RDKit          3D

 74 79  0  0  0  0  0  0  0  0999 V2000
    2.9696    0.3776   -1.4393 C   0  0  0  0  0  0  0  0  0  0  0  0
    2.6963   -0.2268   -0.0501 C   0  0  1  0  0  0  0  0  0  0  0  0
    1.1774   -0.4918    0.0703 C   0  0  0  0  0  0  0  0  0  0  0  0
    3.4606   -1.5673    0.0522 C   0  0  0  0  0  0  0  0  0  0  0  0
    3.1453    0.7069    1.0901 C   0  0  0  0  0  0  0  0  0  0  0  0
    3.7335    1.9622    0.8689 C   0  0  0  0  0  0  0  0  0  0  0  0
    4.1291    2.7841    1.9277 C   0  0  0  0  0  0  0  0  0  0  0  0
    3.9575    2.3927    3.2658 C   0  0  0  0  0  0  0  0  0  0  0  0
    4.3781    3.2656    4.3921 C   0  0  0  0  0  0  0  0  0  0  0  0
    4.2663    4.6663    4.3062 C   0  0  0  0  0  0  0  0  0  0  0  0
    4.6594    5.4985    5.3556 C   0  0  0  0  0  0  0  0  0  0  0  0
    5.1802    4.9284    6.5372 C   0  0  0  0  0  0  0  0  0  0  0  0
    5.2997    3.5261    6.6452 C   0  0  0  0  0  0  0  0  0  0  0  0
    4.9014    2.7182    5.5788 C   0  0  0  0  0  0  0  0  0  0  0  0
    5.8319    2.9492    7.9394 C   0  0  0  0  0  0  0  0  0  0  0  0
    6.9058    3.8510    8.5597 C   0  0  0  0  0  0  0  0  0  0  0  0
    6.4326    5.2844    8.6714 C   0  0  0  0  0  0  0  0  0  0  0  0
    6.8177    6.1150    9.7250 C   0  0  0  0  0  0  0  0  0  0  0  0
    6.3963    7.4562    9.8009 C   0  0  0  0  0  0  0  0  0  0  0  0
    6.8162    8.3288   10.9276 C   0  0  0  0  0  0  0  0  0  0  0  0
    8.0881    8.2141   11.5128 C   0  0  0  0  0  0  0  0  0  0  0  0
    8.4822    9.0354   12.5726 C   0  0  0  0  0  0  0  0  0  0  0  0
    7.6275   10.0137   13.1044 C   0  0  0  0  0  0  0  0  0  0  0  0
    8.0255   10.9366   14.2721 C   0  0  1  0  0  0  0  0  0  0  0  0
    9.4539   10.6578   14.7736 C   0  0  0  0  0  0  0  0  0  0  0  0
    7.9551   12.4106   13.8097 C   0  0  0  0  0  0  0  0  0  0  0  0
    7.0494   10.7221   15.4523 C   0  0  0  0  0  0  0  0  0  0  0  0
    6.3536   10.1258   12.5155 C   0  0  0  0  0  0  0  0  0  0  0  0
    5.9565    9.3099   11.4585 C   0  0  0  0  0  0  0  0  0  0  0  0
    5.5647    7.9442    8.7753 C   0  0  0  0  0  0  0  0  0  0  0  0
    5.1616    7.1354    7.7114 C   0  0  0  0  0  0  0  0  0  0  0  0
    5.5971    5.7940    7.6542 C   0  0  0  0  0  0  0  0  0  0  0  0
    4.2403    7.6374    6.6204 C   0  0  0  0  0  0  0  0  0  0  0  0
    4.5764    7.0070    5.2635 C   0  0  0  0  0  0  0  0  0  0  0  0
    3.3680    1.1337    3.4911 C   0  0  0  0  0  0  0  0  0  0  0  0
    2.9747    0.3182    2.4324 C   0  0  0  0  0  0  0  0  0  0  0  0
    2.6338   -0.3203   -2.2225 H   0  0  0  0  0  0  0  0  0  0  0  0
    4.0425    0.5651   -1.6024 H   0  0  0  0  0  0  0  0  0  0  0  0
    2.4299    1.3259   -1.5885 H   0  0  0  0  0  0  0  0  0  0  0  0
    0.8380   -1.1626   -0.7364 H   0  0  0  0  0  0  0  0  0  0  0  0
    0.6057    0.4469   -0.0041 H   0  0  0  0  0  0  0  0  0  0  0  0
    0.9176   -0.9663    1.0289 H   0  0  0  0  0  0  0  0  0  0  0  0
    3.1487   -2.2517   -0.7541 H   0  0  0  0  0  0  0  0  0  0  0  0
    3.2731   -2.0748    1.0107 H   0  0  0  0  0  0  0  0  0  0  0  0
    4.5473   -1.4098   -0.0360 H   0  0  0  0  0  0  0  0  0  0  0  0
    3.9024    2.3195   -0.1473 H   0  0  0  0  0  0  0  0  0  0  0  0
    4.6058    3.7412    1.7029 H   0  0  0  0  0  0  0  0  0  0  0  0
    3.8405    5.1166    3.4057 H   0  0  0  0  0  0  0  0  0  0  0  0
    5.0217    1.6350    5.6632 H   0  0  0  0  0  0  0  0  0  0  0  0
    6.2262    1.9345    7.7726 H   0  0  0  0  0  0  0  0  0  0  0  0
    4.9937    2.8457    8.6553 H   0  0  0  0  0  0  0  0  0  0  0  0
    7.8100    3.8224    7.9215 H   0  0  0  0  0  0  0  0  0  0  0  0
    7.2094    3.4700    9.5473 H   0  0  0  0  0  0  0  0  0  0  0  0
    7.4437    5.7032   10.5208 H   0  0  0  0  0  0  0  0  0  0  0  0
    8.7995    7.4850   11.1178 H   0  0  0  0  0  0  0  0  0  0  0  0
    9.4860    8.9029   12.9771 H   0  0  0  0  0  0  0  0  0  0  0  0
   10.2057   10.8210   13.9855 H   0  0  0  0  0  0  0  0  0  0  0  0
    9.5655    9.6270   15.1448 H   0  0  0  0  0  0  0  0  0  0  0  0
    9.6961   11.3366   15.6065 H   0  0  0  0  0  0  0  0  0  0  0  0
    8.6456   12.5946   12.9712 H   0  0  0  0  0  0  0  0  0  0  0  0
    8.2325   13.0874   14.6348 H   0  0  0  0  0  0  0  0  0  0  0  0
    6.9435   12.6888   13.4769 H   0  0  0  0  0  0  0  0  0  0  0  0
    7.0817    9.6795   15.8069 H   0  0  0  0  0  0  0  0  0  0  0  0
    6.0093   10.9475   15.1716 H   0  0  0  0  0  0  0  0  0  0  0  0
    7.3162   11.3781   16.2975 H   0  0  0  0  0  0  0  0  0  0  0  0
    5.6423   10.8639   12.8942 H   0  0  0  0  0  0  0  0  0  0  0  0
    4.9478    9.4194   11.0533 H   0  0  0  0  0  0  0  0  0  0  0  0
    5.2423    8.9884    8.7963 H   0  0  0  0  0  0  0  0  0  0  0  0
    4.2830    8.7362    6.5588 H   0  0  0  0  0  0  0  0  0  0  0  0
    3.1973    7.3790    6.8871 H   0  0  0  0  0  0  0  0  0  0  0  0
    5.5534    7.3978    4.9191 H   0  0  0  0  0  0  0  0  0  0  0  0
    3.8367    7.3041    4.5038 H   0  0  0  0  0  0  0  0  0  0  0  0
    3.1906    0.7968    4.5152 H   0  0  0  0  0  0  0  0  0  0  0  0
    2.5137   -0.6448    2.6654 H   0  0  0  0  0  0  0  0  0  0  0  0
  2  1  1  6
  1 37  1  0
  1 38  1  0
  1 39  1  0
  2  3  1  0
  2  4  1  0
  2  5  1  0
  3 40  1  0
  3 41  1  0
  3 42  1  0
  4 43  1  0
  4 44  1  0
  4 45  1  0
  5  6  2  0
  5 36  1  0
  6  7  1  0
  6 46  1  0
  7  8  2  0
  7 47  1  0
  8  9  1  0
  8 35  1  0
  9 10  2  0
  9 14  1  0
 10 11  1  0
 10 48  1  0
 11 12  2  0
 11 34  1  0
 12 13  1  0
 12 32  1  0
 13 14  2  0
 13 15  1  0
 14 49  1  0
 15 16  1  0
 15 50  1  0
 15 51  1  0
 16 17  1  0
 16 52  1  0
 16 53  1  0
 17 18  1  0
 17 32  2  0
 18 19  2  0
 18 54  1  0
 19 20  1  0
 19 30  1  0
 20 21  2  0
 20 29  1  0
 21 22  1  0
 21 55  1  0
 22 23  2  0
 22 56  1  0
 23 24  1  0
 23 28  1  0
 24 25  1  1
 24 26  1  0
 24 27  1  0
 25 57  1  0
 25 58  1  0
 25 59  1  0
 26 60  1  0
 26 61  1  0
 26 62  1  0
 27 63  1  0
 27 64  1  0
 27 65  1  0
 28 29  2  0
 28 66  1  0
 29 67  1  0
 30 31  2  0
 30 68  1  0
 31 32  1  0
 31 33  1  0
 33 34  1  0
 33 69  1  0
 33 70  1  0
 34 71  1  0
 34 72  1  0
 35 36  2  0
 35 73  1  0
 36 74  1  0
M  END

