
     RDKit          3D

 39 39  0  0  0  0  0  0  0  0999 V2000
    0.8147    0.7118   -2.9662 C   0  0  0  0  0  0  0  0  0  0  0  0
    2.1732    0.4098   -3.1290 O   0  0  0  0  0  0  0  0  0  0  0  0
    2.8932    0.3329   -1.9230 C   0  0  0  0  0  0  0  0  0  0  0  0
    4.3503    0.0217   -2.2305 C   0  0  0  0  0  0  0  0  0  0  0  0
    5.0159    1.0958   -3.0998 C   0  0  0  0  0  0  0  0  0  0  0  0
    6.4132    0.8255   -3.3615 N   0  0  0  0  0  0  0  0  0  0  0  0
    6.9044    0.5101   -4.5800 C   0  0  0  0  0  0  0  0  0  0  0  0
    6.2394    0.4516   -5.6052 O   0  0  0  0  0  0  0  0  0  0  0  0
    8.4367    0.2223   -4.4643 C   0  0  0  0  0  0  0  0  0  0  0  0
    8.9138    0.1813   -3.3305 O   0  0  0  0  0  0  0  0  0  0  0  0
    9.1808    0.0190   -5.5824 N   0  0  0  0  0  0  0  0  0  0  0  0
   10.5992   -0.3172   -5.4240 C   0  0  0  0  0  0  0  0  0  0  0  0
   10.9128   -1.6572   -6.0964 C   0  0  0  0  0  0  0  0  0  0  0  0
   10.4649   -1.6643   -7.5624 C   0  0  0  0  0  0  0  0  0  0  0  0
    8.9931   -1.2455   -7.7101 C   0  0  2  0  0  0  0  0  0  0  0  0
    8.5579   -1.1535   -9.1737 C   0  0  0  0  0  0  0  0  0  0  0  0
    8.7415    0.0858   -6.9804 C   0  0  0  0  0  0  0  0  0  0  0  0
    0.3540    0.7456   -3.9644 H   0  0  0  0  0  0  0  0  0  0  0  0
    0.6620    1.6946   -2.4741 H   0  0  0  0  0  0  0  0  0  0  0  0
    0.2876   -0.0543   -2.3608 H   0  0  0  0  0  0  0  0  0  0  0  0
    2.4684   -0.4531   -1.2630 H   0  0  0  0  0  0  0  0  0  0  0  0
    2.8145    1.2922   -1.3644 H   0  0  0  0  0  0  0  0  0  0  0  0
    4.4125   -0.9517   -2.7449 H   0  0  0  0  0  0  0  0  0  0  0  0
    4.8935   -0.0826   -1.2745 H   0  0  0  0  0  0  0  0  0  0  0  0
    4.9185    2.0820   -2.6091 H   0  0  0  0  0  0  0  0  0  0  0  0
    4.5053    1.1564   -4.0699 H   0  0  0  0  0  0  0  0  0  0  0  0
    7.0950    0.7730   -2.6068 H   0  0  0  0  0  0  0  0  0  0  0  0
   10.8254   -0.3333   -4.3520 H   0  0  0  0  0  0  0  0  0  0  0  0
   11.2009    0.4861   -5.8903 H   0  0  0  0  0  0  0  0  0  0  0  0
   10.3975   -2.4614   -5.5427 H   0  0  0  0  0  0  0  0  0  0  0  0
   11.9944   -1.8583   -6.0179 H   0  0  0  0  0  0  0  0  0  0  0  0
   10.6242   -2.6601   -8.0100 H   0  0  0  0  0  0  0  0  0  0  0  0
   11.0937   -0.9601   -8.1402 H   0  0  0  0  0  0  0  0  0  0  0  0
    8.3671   -2.0055   -7.2061 H   0  0  0  0  0  0  0  0  0  0  0  0
    9.1384   -0.3861   -9.7144 H   0  0  0  0  0  0  0  0  0  0  0  0
    7.4917   -0.8901   -9.2605 H   0  0  0  0  0  0  0  0  0  0  0  0
    8.7118   -2.1125   -9.6940 H   0  0  0  0  0  0  0  0  0  0  0  0
    7.6830    0.3540   -7.0124 H   0  0  0  0  0  0  0  0  0  0  0  0
    9.3235    0.8854   -7.4800 H   0  0  0  0  0  0  0  0  0  0  0  0
  1  2  1  0
  1 18  1  0
  1 19  1  0
  1 20  1  0
  2  3  1  0
  3  4  1  0
  3 21  1  0
  3 22  1  0
  4  5  1  0
  4 23  1  0
  4 24  1  0
  5  6  1  0
  5 25  1  0
  5 26  1  0
  6  7  1  0
  6 27  1  0
  7  8  2  0
  7  9  1  0
  9 10  2  0
  9 11  1  0
 11 12  1  0
 11 17  1  0
 12 13  1  0
 12 28  1  0
 12 29  1  0
 13 14  1  0
 13 30  1  0
 13 31  1  0
 14 15  1  0
 14 32  1  0
 14 33  1  0
 15 16  1  0
 15 17  1  0
 15 34  1  1
 16 35  1  0
 16 36  1  0
 16 37  1  0
 17 38  1  0
 17 39  1  0
M  END

