
     RDKit          3D

 39 43  0  0  0  0  0  0  0  0999 V2000
    1.0886   -0.3329    0.1095 O   0  0  0  0  0  0  0  0  0  0  0  0
    2.2728   -0.1956   -0.0169 C   0  0  0  0  0  0  0  0  0  0  0  0
    3.0975    0.1462    1.0214 O   0  0  0  0  0  0  0  0  0  0  0  0
    4.5000    0.2408    0.6223 C   0  0  2  0  0  0  0  0  0  0  0  0
    4.4468   -0.1069   -0.8643 C   0  0  0  0  0  0  0  0  0  0  0  0
    5.4676   -0.1892   -1.8104 C   0  0  0  0  0  0  0  0  0  0  0  0
    5.1187   -0.5363   -3.1205 C   0  0  0  0  0  0  0  0  0  0  0  0
    3.7834   -0.7949   -3.4773 C   0  0  0  0  0  0  0  0  0  0  0  0
    2.7666   -0.7106   -2.5242 C   0  0  0  0  0  0  0  0  0  0  0  0
    3.1276   -0.3628   -1.2206 C   0  0  0  0  0  0  0  0  0  0  0  0
    5.3044   -0.7654    1.4286 C   0  0  0  0  0  0  0  0  0  0  0  0
    4.9481   -2.1232    1.4102 C   0  0  0  0  0  0  0  0  0  0  0  0
    5.6777   -3.0409    2.1515 C   0  0  0  0  0  0  0  0  0  0  0  0
    5.2693   -4.7510    2.1616 Cl  0  0  0  0  0  0  0  0  0  0  0  0
    6.7765   -2.6401    2.9276 C   0  0  0  0  0  0  0  0  0  0  0  0
    7.5340   -3.4815    3.6741 O   0  0  0  0  0  0  0  0  0  0  0  0
    7.1437   -1.2881    2.9568 C   0  0  0  0  0  0  0  0  0  0  0  0
    8.1922   -0.8732    3.6953 O   0  0  0  0  0  0  0  0  0  0  0  0
    6.3943   -0.3571    2.2090 C   0  0  0  0  0  0  0  0  0  0  0  0
    6.8139    0.9321    2.2968 O   0  0  0  0  0  0  0  0  0  0  0  0
    6.0944    1.9103    1.6873 C   0  0  0  0  0  0  0  0  0  0  0  0
    4.9823    1.6602    0.8721 C   0  0  0  0  0  0  0  0  0  0  0  0
    4.3016    2.7435    0.2942 C   0  0  0  0  0  0  0  0  0  0  0  0
    4.7383    4.0394    0.5262 C   0  0  0  0  0  0  0  0  0  0  0  0
    3.9176    5.4280   -0.1732 Cl  0  0  0  0  0  0  0  0  0  0  0  0
    5.8582    4.2963    1.3326 C   0  0  0  0  0  0  0  0  0  0  0  0
    6.3410    5.5350    1.6000 O   0  0  0  0  0  0  0  0  0  0  0  0
    6.5472    3.2253    1.9174 C   0  0  0  0  0  0  0  0  0  0  0  0
    7.6234    3.4414    2.6997 O   0  0  0  0  0  0  0  0  0  0  0  0
    6.5083    0.0087   -1.5432 H   0  0  0  0  0  0  0  0  0  0  0  0
    5.8993   -0.6086   -3.8822 H   0  0  0  0  0  0  0  0  0  0  0  0
    3.5445   -1.0633   -4.5091 H   0  0  0  0  0  0  0  0  0  0  0  0
    1.7211   -0.9053   -2.7732 H   0  0  0  0  0  0  0  0  0  0  0  0
    4.0998   -2.4657    0.8180 H   0  0  0  0  0  0  0  0  0  0  0  0
    7.1807   -4.3821    3.5893 H   0  0  0  0  0  0  0  0  0  0  0  0
    8.5635   -1.6471    4.1472 H   0  0  0  0  0  0  0  0  0  0  0  0
    3.4286    2.5768   -0.3364 H   0  0  0  0  0  0  0  0  0  0  0  0
    5.7805    6.1934    1.1580 H   0  0  0  0  0  0  0  0  0  0  0  0
    7.7659    4.3995    2.7526 H   0  0  0  0  0  0  0  0  0  0  0  0
  1  2  2  0
  2  3  1  0
  2 10  1  0
  4  3  1  1
  4  5  1  0
  4 11  1  0
  4 22  1  0
  5  6  2  0
  5 10  1  0
  6  7  1  0
  6 30  1  0
  7  8  2  0
  7 31  1  0
  8  9  1  0
  8 32  1  0
  9 10  2  0
  9 33  1  0
 11 12  2  0
 11 19  1  0
 12 13  1  0
 12 34  1  0
 13 14  1  0
 13 15  2  0
 15 16  1  0
 15 17  1  0
 16 35  1  0
 17 18  1  0
 17 19  2  0
 18 36  1  0
 19 20  1  0
 20 21  1  0
 21 22  2  0
 21 28  1  0
 22 23  1  0
 23 24  2  0
 23 37  1  0
 24 25  1  0
 24 26  1  0
 26 27  1  0
 26 28  2  0
 27 38  1  0
 28 29  1  0
 29 39  1  0
M  END

