
     RDKit          3D

 50 53  0  0  0  0  0  0  0  0999 V2000
    0.9974   -1.5139   -0.8852 C   0  0  0  0  0  0  0  0  0  0  0  0
    2.4824   -1.8401   -0.7575 C   0  0  0  0  0  0  0  0  0  0  0  0
    3.1207   -1.2675    0.4326 N   0  0  0  0  0  0  0  0  0  0  0  0
    2.4898   -1.6064    1.7051 C   0  0  0  0  0  0  0  0  0  0  0  0
    2.4904   -3.1127    2.0120 C   0  0  0  0  0  0  0  0  0  0  0  0
    1.5968   -3.8549    1.7033 O   0  0  0  0  0  0  0  0  0  0  0  0
    3.6168   -3.6025    2.5867 O   0  0  0  0  0  0  0  0  0  0  0  0
    4.5622   -1.4400    0.4192 C   0  0  1  0  0  0  0  0  0  0  0  0
    5.3612   -0.6604   -0.6571 C   0  0  0  0  0  0  0  0  0  0  0  0
    6.4353   -0.3362    0.4114 C   0  0  2  0  0  0  0  0  0  0  0  0
    7.5406   -1.2793    0.3527 N   0  0  0  0  0  0  0  0  0  0  0  0
    8.4916   -1.2796    1.3610 C   0  0  0  0  0  0  0  0  0  0  0  0
    8.3608   -0.6387    2.3896 O   0  0  0  0  0  0  0  0  0  0  0  0
    9.5967   -2.0759    1.0934 N   0  0  0  0  0  0  0  0  0  0  0  0
   10.5714   -2.3248    2.1121 C   0  0  2  0  0  0  0  0  0  0  0  0
   11.5227   -1.2134    2.4504 C   0  0  1  0  0  0  0  0  0  0  0  0
   12.1634   -1.2330    3.8372 C   0  0  0  0  0  0  0  0  0  0  0  0
   12.9642   -2.5236    3.8584 C   0  0  0  0  0  0  0  0  0  0  0  0
   13.7082   -3.0740    4.9025 C   0  0  0  0  0  0  0  0  0  0  0  0
   14.4278   -4.2565    4.6834 C   0  0  0  0  0  0  0  0  0  0  0  0
   14.3983   -4.8834    3.4324 C   0  0  0  0  0  0  0  0  0  0  0  0
   13.6387   -4.3440    2.3865 C   0  0  0  0  0  0  0  0  0  0  0  0
   12.9200   -3.1668    2.6052 C   0  0  0  0  0  0  0  0  0  0  0  0
   12.0251   -2.4207    1.6719 C   0  0  1  0  0  0  0  0  0  0  0  0
    5.3874   -0.6924    1.4980 C   0  0  0  0  0  0  0  0  0  0  0  0
    0.6341   -1.8189   -1.8788 H   0  0  0  0  0  0  0  0  0  0  0  0
    0.8210   -0.4321   -0.7719 H   0  0  0  0  0  0  0  0  0  0  0  0
    0.3975   -2.0547   -0.1386 H   0  0  0  0  0  0  0  0  0  0  0  0
    3.0175   -1.4271   -1.6284 H   0  0  0  0  0  0  0  0  0  0  0  0
    2.6186   -2.9431   -0.8048 H   0  0  0  0  0  0  0  0  0  0  0  0
    1.4407   -1.2830    1.6942 H   0  0  0  0  0  0  0  0  0  0  0  0
    2.9968   -1.0496    2.5105 H   0  0  0  0  0  0  0  0  0  0  0  0
    4.2322   -2.8844    2.7942 H   0  0  0  0  0  0  0  0  0  0  0  0
    4.8583   -2.5109    0.3903 H   0  0  0  0  0  0  0  0  0  0  0  0
    4.8177    0.2472   -0.9574 H   0  0  0  0  0  0  0  0  0  0  0  0
    5.6893   -1.2036   -1.5577 H   0  0  0  0  0  0  0  0  0  0  0  0
    6.7991    0.7048    0.4436 H   0  0  0  0  0  0  0  0  0  0  0  0
    7.8542   -1.5346   -0.5783 H   0  0  0  0  0  0  0  0  0  0  0  0
    9.4789   -2.8076    0.3994 H   0  0  0  0  0  0  0  0  0  0  0  0
   10.2573   -2.9867    2.9322 H   0  0  0  0  0  0  0  0  0  0  0  0
   11.3507   -0.2577    1.9527 H   0  0  0  0  0  0  0  0  0  0  0  0
   11.4068   -1.1898    4.6394 H   0  0  0  0  0  0  0  0  0  0  0  0
   12.8236   -0.3591    3.9765 H   0  0  0  0  0  0  0  0  0  0  0  0
   13.7442   -2.5826    5.8790 H   0  0  0  0  0  0  0  0  0  0  0  0
   15.0220   -4.6880    5.4931 H   0  0  0  0  0  0  0  0  0  0  0  0
   14.9675   -5.8028    3.2720 H   0  0  0  0  0  0  0  0  0  0  0  0
   13.6085   -4.8416    1.4132 H   0  0  0  0  0  0  0  0  0  0  0  0
   12.2414   -2.3812    0.6004 H   0  0  0  0  0  0  0  0  0  0  0  0
    4.8625    0.2144    1.8333 H   0  0  0  0  0  0  0  0  0  0  0  0
    5.7690   -1.2375    2.3736 H   0  0  0  0  0  0  0  0  0  0  0  0
  1  2  1  0
  1 26  1  0
  1 27  1  0
  1 28  1  0
  2  3  1  0
  2 29  1  0
  2 30  1  0
  3  4  1  0
  3  8  1  0
  4  5  1  0
  4 31  1  0
  4 32  1  0
  5  6  2  0
  5  7  1  0
  7 33  1  0
  8  9  1  0
  8 25  1  0
  8 34  1  6
  9 10  1  0
  9 35  1  0
  9 36  1  0
 10 11  1  0
 10 25  1  0
 10 37  1  1
 11 12  1  0
 11 38  1  0
 12 13  2  0
 12 14  1  0
 14 15  1  0
 14 39  1  0
 15 16  1  0
 15 24  1  0
 15 40  1  1
 16 17  1  0
 16 24  1  0
 16 41  1  6
 17 18  1  0
 17 42  1  0
 17 43  1  0
 18 19  1  0
 18 23  2  0
 19 20  2  0
 19 44  1  0
 20 21  1  0
 20 45  1  0
 21 22  2  0
 21 46  1  0
 22 23  1  0
 22 47  1  0
 23 24  1  0
 24 48  1  6
 25 49  1  0
 25 50  1  0
M  END

