
     RDKit          3D

 39 40  0  0  0  0  0  0  0  0999 V2000
    4.8064    1.0463   -1.1590 C   0  0  0  0  0  0  0  0  0  0  0  0
    4.0904   -0.0491   -0.4204 C   0  0  0  0  0  0  0  0  0  0  0  0
    3.1033   -0.8129   -0.9312 C   0  0  0  0  0  0  0  0  0  0  0  0
    2.4892   -0.6829   -2.3109 C   0  0  0  0  0  0  0  0  0  0  0  0
    3.4331   -0.9197   -3.4028 N   0  0  0  0  0  0  0  0  0  0  0  0
    4.0439   -2.2450   -3.4428 C   0  0  0  0  0  0  0  0  0  0  0  0
    3.1253   -3.3251   -4.0272 C   0  0  0  0  0  0  0  0  0  0  0  0
    2.6262   -2.9296   -5.3464 N   0  0  0  0  0  0  0  0  0  0  0  0
    2.0951   -3.9308   -6.1839 C   0  0  0  0  0  0  0  0  0  0  0  0
    0.8801   -3.7636   -6.8814 C   0  0  0  0  0  0  0  0  0  0  0  0
    0.3938   -4.7523   -7.7428 C   0  0  0  0  0  0  0  0  0  0  0  0
    1.1074   -5.9328   -7.9049 C   0  0  0  0  0  0  0  0  0  0  0  0
    0.6398   -6.8885   -8.7269 F   0  0  0  0  0  0  0  0  0  0  0  0
    2.3072   -6.1372   -7.2255 C   0  0  0  0  0  0  0  0  0  0  0  0
    2.7951   -5.1433   -6.3806 C   0  0  0  0  0  0  0  0  0  0  0  0
    1.9949   -1.6173   -5.3446 C   0  0  0  0  0  0  0  0  0  0  0  0
    2.9353   -0.5699   -4.7274 C   0  0  0  0  0  0  0  0  0  0  0  0
    4.6180   -0.3212    0.9692 C   0  0  0  0  0  0  0  0  0  0  0  0
    5.7499   -0.0763    1.2951 O   0  0  0  0  0  0  0  0  0  0  0  0
    3.7538   -0.8673    1.8563 O   0  0  0  0  0  0  0  0  0  0  0  0
    4.5864    1.0207   -2.2323 H   0  0  0  0  0  0  0  0  0  0  0  0
    5.8904    0.9320   -1.0075 H   0  0  0  0  0  0  0  0  0  0  0  0
    4.5381    2.0339   -0.7446 H   0  0  0  0  0  0  0  0  0  0  0  0
    2.6989   -1.6238   -0.3135 H   0  0  0  0  0  0  0  0  0  0  0  0
    2.1091    0.3462   -2.4377 H   0  0  0  0  0  0  0  0  0  0  0  0
    1.5949   -1.3407   -2.3476 H   0  0  0  0  0  0  0  0  0  0  0  0
    4.3664   -2.5337   -2.4307 H   0  0  0  0  0  0  0  0  0  0  0  0
    4.9505   -2.1824   -4.0701 H   0  0  0  0  0  0  0  0  0  0  0  0
    2.2770   -3.5256   -3.3352 H   0  0  0  0  0  0  0  0  0  0  0  0
    3.6900   -4.2629   -4.1059 H   0  0  0  0  0  0  0  0  0  0  0  0
    0.2886   -2.8576   -6.7536 H   0  0  0  0  0  0  0  0  0  0  0  0
   -0.5468   -4.6157   -8.2806 H   0  0  0  0  0  0  0  0  0  0  0  0
    2.8577   -7.0681   -7.3771 H   0  0  0  0  0  0  0  0  0  0  0  0
    3.7533   -5.3043   -5.8843 H   0  0  0  0  0  0  0  0  0  0  0  0
    1.0216   -1.6274   -4.8036 H   0  0  0  0  0  0  0  0  0  0  0  0
    1.7790   -1.3207   -6.3820 H   0  0  0  0  0  0  0  0  0  0  0  0
    2.4224    0.4045   -4.6816 H   0  0  0  0  0  0  0  0  0  0  0  0
    3.8053   -0.4548   -5.3978 H   0  0  0  0  0  0  0  0  0  0  0  0
    2.8608   -0.8635    1.4833 H   0  0  0  0  0  0  0  0  0  0  0  0
  1  2  1  0
  1 21  1  0
  1 22  1  0
  1 23  1  0
  2  3  2  0
  2 18  1  0
  3  4  1  0
  3 24  1  0
  4  5  1  0
  4 25  1  0
  4 26  1  0
  5  6  1  0
  5 17  1  0
  6  7  1  0
  6 27  1  0
  6 28  1  0
  7  8  1  0
  7 29  1  0
  7 30  1  0
  8  9  1  0
  8 16  1  0
  9 10  2  0
  9 15  1  0
 10 11  1  0
 10 31  1  0
 11 12  2  0
 11 32  1  0
 12 13  1  0
 12 14  1  0
 14 15  2  0
 14 33  1  0
 15 34  1  0
 16 17  1  0
 16 35  1  0
 16 36  1  0
 17 37  1  0
 17 38  1  0
 18 19  2  0
 18 20  1  0
 20 39  1  0
M  END

