
     RDKit          3D

 33 35  0  0  0  0  0  0  0  0999 V2000
    6.8029    1.2193    2.4463 F   0  0  0  0  0  0  0  0  0  0  0  0
    6.6106    2.5414    2.5843 C   0  0  1  0  0  0  0  0  0  0  0  0
    7.6061    3.0131    3.3580 F   0  0  0  0  0  0  0  0  0  0  0  0
    6.7518    3.0953    1.3643 F   0  0  0  0  0  0  0  0  0  0  0  0
    5.2621    2.8780    3.1747 C   0  0  1  0  0  0  0  0  0  0  0  0
    4.0520    2.1740    2.5136 C   0  0  0  0  0  0  0  0  0  0  0  0
    3.9956    1.2509    3.6528 N   0  0  0  0  0  0  0  0  0  0  0  0
    2.7118    0.8214    4.1648 C   0  0  0  0  0  0  0  0  0  0  0  0
    2.8079   -0.0788    5.3817 C   0  0  0  0  0  0  0  0  0  0  0  0
    2.2247    0.3269    6.5665 C   0  0  0  0  0  0  0  0  0  0  0  0
    2.2378   -0.4855    7.7247 C   0  0  0  0  0  0  0  0  0  0  0  0
    2.8403   -1.7228    7.6873 C   0  0  0  0  0  0  0  0  0  0  0  0
    2.7969   -2.8815    9.4828 I   0  0  0  0  0  0  0  0  0  0  0  0
    3.4670   -2.2111    6.4973 C   0  0  0  0  0  0  0  0  0  0  0  0
    4.0941   -3.4849    6.4045 C   0  0  0  0  0  0  0  0  0  0  0  0
    4.6840   -3.9109    5.2337 C   0  0  0  0  0  0  0  0  0  0  0  0
    4.6842   -3.0758    4.0931 C   0  0  0  0  0  0  0  0  0  0  0  0
    4.0881   -1.8334    4.1434 C   0  0  0  0  0  0  0  0  0  0  0  0
    3.4559   -1.3604    5.3298 C   0  0  0  0  0  0  0  0  0  0  0  0
    4.8810    2.1014    4.4597 C   0  0  0  0  0  0  0  0  0  0  0  0
    5.2042    3.9727    3.2401 H   0  0  0  0  0  0  0  0  0  0  0  0
    4.2137    1.7033    1.5289 H   0  0  0  0  0  0  0  0  0  0  0  0
    3.1774    2.8528    2.4416 H   0  0  0  0  0  0  0  0  0  0  0  0
    2.1944    0.2867    3.3473 H   0  0  0  0  0  0  0  0  0  0  0  0
    2.0656    1.6907    4.4267 H   0  0  0  0  0  0  0  0  0  0  0  0
    1.7273    1.2993    6.6179 H   0  0  0  0  0  0  0  0  0  0  0  0
    1.7647   -0.1240    8.6389 H   0  0  0  0  0  0  0  0  0  0  0  0
    4.1020   -4.1298    7.2842 H   0  0  0  0  0  0  0  0  0  0  0  0
    5.1581   -4.8946    5.1908 H   0  0  0  0  0  0  0  0  0  0  0  0
    5.1658   -3.4119    3.1714 H   0  0  0  0  0  0  0  0  0  0  0  0
    4.1316   -1.1727    3.2783 H   0  0  0  0  0  0  0  0  0  0  0  0
    5.6881    1.5714    4.9912 H   0  0  0  0  0  0  0  0  0  0  0  0
    4.3471    2.7494    5.1837 H   0  0  0  0  0  0  0  0  0  0  0  0
  2  1  1  6
  2  3  1  0
  2  4  1  0
  2  5  1  0
  5  6  1  0
  5 20  1  0
  5 21  1  1
  6  7  1  0
  6 22  1  0
  6 23  1  0
  7  8  1  0
  7 20  1  0
  8  9  1  0
  8 24  1  0
  8 25  1  0
  9 10  2  0
  9 19  1  0
 10 11  1  0
 10 26  1  0
 11 12  2  0
 11 27  1  0
 12 13  1  0
 12 14  1  0
 14 15  1  0
 14 19  2  0
 15 16  2  0
 15 28  1  0
 16 17  1  0
 16 29  1  0
 17 18  2  0
 17 30  1  0
 18 19  1  0
 18 31  1  0
 20 32  1  0
 20 33  1  0
M  END

