
     RDKit          3D

 24 25  0  0  0  0  0  0  0  0999 V2000
    1.1624    0.0518    0.6818 N   0  0  0  0  0  0  0  0  0  0  0  0
    2.2927    0.0504    0.4224 C   0  0  0  0  0  0  0  0  0  0  0  0
    3.7259    0.0496    0.1048 C   0  0  1  0  0  0  0  0  0  0  0  0
    3.9182    0.0735   -1.4129 C   0  0  0  0  0  0  0  0  0  0  0  0
    3.9879    1.2846   -2.1137 C   0  0  0  0  0  0  0  0  0  0  0  0
    4.1062    1.3101   -3.5043 C   0  0  0  0  0  0  0  0  0  0  0  0
    4.1501    0.1114   -4.2297 C   0  0  0  0  0  0  0  0  0  0  0  0
    4.2699    0.0706   -5.5784 O   0  0  0  0  0  0  0  0  0  0  0  0
    4.0656   -1.1084   -3.5419 C   0  0  0  0  0  0  0  0  0  0  0  0
    3.9478   -1.1189   -2.1546 C   0  0  0  0  0  0  0  0  0  0  0  0
    4.5403    1.1322    0.9136 C   0  0  0  0  0  0  0  0  0  0  0  0
    5.4535    0.0192    1.4322 C   0  0  2  0  0  0  0  0  0  0  0  0
    5.6470   -0.0051    2.7722 F   0  0  0  0  0  0  0  0  0  0  0  0
    6.6808    0.0252    0.8482 F   0  0  0  0  0  0  0  0  0  0  0  0
    4.5319   -1.0676    0.8745 C   0  0  0  0  0  0  0  0  0  0  0  0
    3.9425    2.2348   -1.5765 H   0  0  0  0  0  0  0  0  0  0  0  0
    4.1638    2.2686   -4.0295 H   0  0  0  0  0  0  0  0  0  0  0  0
    4.3104    0.9695   -5.9311 H   0  0  0  0  0  0  0  0  0  0  0  0
    4.0926   -2.0377   -4.1141 H   0  0  0  0  0  0  0  0  0  0  0  0
    3.8701   -2.0822   -1.6448 H   0  0  0  0  0  0  0  0  0  0  0  0
    3.9589    1.5943    1.7212 H   0  0  0  0  0  0  0  0  0  0  0  0
    5.0480    1.8993    0.3169 H   0  0  0  0  0  0  0  0  0  0  0  0
    3.9471   -1.5541    1.6651 H   0  0  0  0  0  0  0  0  0  0  0  0
    5.0331   -1.8164    0.2495 H   0  0  0  0  0  0  0  0  0  0  0  0
  1  2  3  0
  3  2  1  6
  3  4  1  0
  3 11  1  0
  3 15  1  0
  4  5  2  0
  4 10  1  0
  5  6  1  0
  5 16  1  0
  6  7  2  0
  6 17  1  0
  7  8  1  0
  7  9  1  0
  8 18  1  0
  9 10  2  0
  9 19  1  0
 10 20  1  0
 11 12  1  0
 11 21  1  0
 11 22  1  0
 12 13  1  1
 12 14  1  0
 12 15  1  0
 15 23  1  0
 15 24  1  0
M  END

