
     RDKit          3D

 56 58  0  0  0  0  0  0  0  0999 V2000
    3.8605    2.0312    5.4466 C   0  0  0  0  0  0  0  0  0  0  0  0
    4.2478    1.6672    4.0139 C   0  0  0  0  0  0  0  0  0  0  0  0
    3.2681    2.0665    2.9226 C   0  0  0  0  0  0  0  0  0  0  0  0
    2.1207    2.8208    3.1961 C   0  0  0  0  0  0  0  0  0  0  0  0
    1.2288    3.1540    2.1764 C   0  0  0  0  0  0  0  0  0  0  0  0
    1.4803    2.7517    0.8660 C   0  0  0  0  0  0  0  0  0  0  0  0
    2.6245    2.0086    0.5378 C   0  0  0  0  0  0  0  0  0  0  0  0
    2.9252    1.6017   -0.8904 C   0  0  0  0  0  0  0  0  0  0  0  0
    2.1370    2.3217   -1.9844 C   0  0  0  0  0  0  0  0  0  0  0  0
    3.5057    1.6619    1.5872 C   0  0  0  0  0  0  0  0  0  0  0  0
    4.6959    0.9215    1.3186 N   0  0  0  0  0  0  0  0  0  0  0  0
    4.7568   -0.3761    0.8517 C   0  0  0  0  0  0  0  0  0  0  0  0
    3.7680   -1.0075    0.5291 O   0  0  0  0  0  0  0  0  0  0  0  0
    6.1852   -0.9500    0.7962 C   0  0  1  0  0  0  0  0  0  0  0  0
    6.1862   -2.4705    0.5692 C   0  0  0  0  0  0  0  0  0  0  0  0
    5.8706   -2.8300   -0.8868 C   0  0  0  0  0  0  0  0  0  0  0  0
    6.7440   -2.0402   -1.8601 C   0  0  0  0  0  0  0  0  0  0  0  0
    6.6390   -0.6017   -1.6183 N   0  0  0  0  0  0  0  0  0  0  0  0
    7.2900    0.2008   -2.6406 C   0  0  0  0  0  0  0  0  0  0  0  0
    6.5940    0.1644   -3.9897 C   0  0  0  0  0  0  0  0  0  0  0  0
    5.1941    0.1185   -4.0785 C   0  0  0  0  0  0  0  0  0  0  0  0
    4.5489    0.1404   -5.3170 C   0  0  0  0  0  0  0  0  0  0  0  0
    5.3115    0.2142   -6.4863 C   0  0  0  0  0  0  0  0  0  0  0  0
    4.4380    0.2462   -8.1839 Br  0  0  0  0  0  0  0  0  0  0  0  0
    6.7058    0.2573   -6.4259 C   0  0  0  0  0  0  0  0  0  0  0  0
    7.3348    0.2271   -5.1777 C   0  0  0  0  0  0  0  0  0  0  0  0
    7.0564   -0.2530   -0.2699 C   0  0  0  0  0  0  0  0  0  0  0  0
    4.6270    1.6735    6.1513 H   0  0  0  0  0  0  0  0  0  0  0  0
    2.9019    1.5727    5.7366 H   0  0  0  0  0  0  0  0  0  0  0  0
    3.7677    3.1200    5.5852 H   0  0  0  0  0  0  0  0  0  0  0  0
    4.4123    0.5771    3.9492 H   0  0  0  0  0  0  0  0  0  0  0  0
    5.2365    2.1180    3.7969 H   0  0  0  0  0  0  0  0  0  0  0  0
    1.9113    3.1444    4.2165 H   0  0  0  0  0  0  0  0  0  0  0  0
    0.3325    3.7363    2.4053 H   0  0  0  0  0  0  0  0  0  0  0  0
    0.7778    3.0318    0.0799 H   0  0  0  0  0  0  0  0  0  0  0  0
    2.7695    0.5127   -0.9715 H   0  0  0  0  0  0  0  0  0  0  0  0
    4.0061    1.7413   -1.0638 H   0  0  0  0  0  0  0  0  0  0  0  0
    1.0596    2.0963   -1.9387 H   0  0  0  0  0  0  0  0  0  0  0  0
    2.4919    2.0032   -2.9769 H   0  0  0  0  0  0  0  0  0  0  0  0
    2.2531    3.4164   -1.9263 H   0  0  0  0  0  0  0  0  0  0  0  0
    5.5474    1.2858    1.7316 H   0  0  0  0  0  0  0  0  0  0  0  0
    6.6491   -0.7368    1.7769 H   0  0  0  0  0  0  0  0  0  0  0  0
    5.4667   -2.9530    1.2475 H   0  0  0  0  0  0  0  0  0  0  0  0
    7.1891   -2.8511    0.8334 H   0  0  0  0  0  0  0  0  0  0  0  0
    4.8123   -2.6103   -1.0885 H   0  0  0  0  0  0  0  0  0  0  0  0
    6.0252   -3.9092   -1.0526 H   0  0  0  0  0  0  0  0  0  0  0  0
    6.4366   -2.2467   -2.8963 H   0  0  0  0  0  0  0  0  0  0  0  0
    7.8079   -2.3699   -1.7707 H   0  0  0  0  0  0  0  0  0  0  0  0
    8.3596   -0.0821   -2.7773 H   0  0  0  0  0  0  0  0  0  0  0  0
    7.3000    1.2469   -2.2847 H   0  0  0  0  0  0  0  0  0  0  0  0
    4.6088    0.0511   -3.1590 H   0  0  0  0  0  0  0  0  0  0  0  0
    3.4597    0.0992   -5.3740 H   0  0  0  0  0  0  0  0  0  0  0  0
    7.2952    0.3063   -7.3431 H   0  0  0  0  0  0  0  0  0  0  0  0
    8.4278    0.2516   -5.1337 H   0  0  0  0  0  0  0  0  0  0  0  0
    6.9978    0.8415   -0.1572 H   0  0  0  0  0  0  0  0  0  0  0  0
    8.1213   -0.5347   -0.0850 H   0  0  0  0  0  0  0  0  0  0  0  0
  1  2  1  0
  1 28  1  0
  1 29  1  0
  1 30  1  0
  2  3  1  0
  2 31  1  0
  2 32  1  0
  3  4  2  0
  3 10  1  0
  4  5  1  0
  4 33  1  0
  5  6  2  0
  5 34  1  0
  6  7  1  0
  6 35  1  0
  7  8  1  0
  7 10  2  0
  8  9  1  0
  8 36  1  0
  8 37  1  0
  9 38  1  0
  9 39  1  0
  9 40  1  0
 10 11  1  0
 11 12  1  0
 11 41  1  0
 12 13  2  0
 12 14  1  0
 14 15  1  0
 14 27  1  0
 14 42  1  1
 15 16  1  0
 15 43  1  0
 15 44  1  0
 16 17  1  0
 16 45  1  0
 16 46  1  0
 17 18  1  0
 17 47  1  0
 17 48  1  0
 18 19  1  0
 18 27  1  0
 19 20  1  0
 19 49  1  0
 19 50  1  0
 20 21  2  0
 20 26  1  0
 21 22  1  0
 21 51  1  0
 22 23  2  0
 22 52  1  0
 23 24  1  0
 23 25  1  0
 25 26  2  0
 25 53  1  0
 26 54  1  0
 27 55  1  0
 27 56  1  0
M  END

