
     RDKit          3D

 43 45  0  0  0  0  0  0  0  0999 V2000
    1.1098   -0.9835    0.5238 C   0  0  0  0  0  0  0  0  0  0  0  0
    2.5557   -0.5749    0.4182 C   0  0  0  0  0  0  0  0  0  0  0  0
    2.9572    0.7717    0.4642 C   0  0  0  0  0  0  0  0  0  0  0  0
    4.3128    1.0886    0.3617 C   0  0  0  0  0  0  0  0  0  0  0  0
    5.2418    0.0587    0.2159 C   0  0  0  0  0  0  0  0  0  0  0  0
    4.7557   -1.2518    0.1800 C   0  0  0  0  0  0  0  0  0  0  0  0
    5.7356   -2.3970    0.0250 C   0  0  0  0  0  0  0  0  0  0  0  0
    6.9368   -2.2048   -0.0722 O   0  0  0  0  0  0  0  0  0  0  0  0
    5.1125   -3.6161    0.0105 N   0  0  0  0  0  0  0  0  0  0  0  0
    5.6705   -4.8916   -0.1069 C   0  0  0  0  0  0  0  0  0  0  0  0
    7.0553   -5.1212   -0.2228 C   0  0  0  0  0  0  0  0  0  0  0  0
    7.5387   -6.4291   -0.3169 C   0  0  0  0  0  0  0  0  0  0  0  0
    6.6776   -7.5270   -0.3053 C   0  0  0  0  0  0  0  0  0  0  0  0
    5.3041   -7.2813   -0.2089 C   0  0  0  0  0  0  0  0  0  0  0  0
    4.1654   -8.6705   -0.1826 S   0  0  1  0  0  0  0  0  0  0  0  0
    4.7845   -9.7489    0.5828 O   0  0  0  0  0  0  0  0  0  0  0  0
    2.8359   -8.1470    0.1297 O   0  0  0  0  0  0  0  0  0  0  0  0
    4.1544   -9.2651   -1.7608 N   0  0  0  0  0  0  0  0  0  0  0  0
    3.4562   -8.8252   -2.8812 C   0  0  0  0  0  0  0  0  0  0  0  0
    3.5589   -9.4582   -3.9847 N   0  0  0  0  0  0  0  0  0  0  0  0
    2.7735   -8.7573   -4.9990 C   0  0  0  0  0  0  0  0  0  0  0  0
    1.8780   -7.7405   -4.2455 C   0  0  0  0  0  0  0  0  0  0  0  0
    2.5940   -7.5758   -2.8914 C   0  0  0  0  0  0  0  0  0  0  0  0
    4.7913   -5.9916   -0.1004 C   0  0  0  0  0  0  0  0  0  0  0  0
    3.4570   -1.5553    0.2775 N   0  0  0  0  0  0  0  0  0  0  0  0
    0.4451   -0.1162    0.6396 H   0  0  0  0  0  0  0  0  0  0  0  0
    0.9646   -1.6558    1.3847 H   0  0  0  0  0  0  0  0  0  0  0  0
    0.8040   -1.5436   -0.3745 H   0  0  0  0  0  0  0  0  0  0  0  0
    2.2085    1.5584    0.5797 H   0  0  0  0  0  0  0  0  0  0  0  0
    4.6398    2.1310    0.3959 H   0  0  0  0  0  0  0  0  0  0  0  0
    6.3148    0.2331    0.1308 H   0  0  0  0  0  0  0  0  0  0  0  0
    4.0991   -3.5390    0.1068 H   0  0  0  0  0  0  0  0  0  0  0  0
    7.7319   -4.2694   -0.2291 H   0  0  0  0  0  0  0  0  0  0  0  0
    8.6167   -6.5908   -0.3932 H   0  0  0  0  0  0  0  0  0  0  0  0
    7.0574   -8.5485   -0.3558 H   0  0  0  0  0  0  0  0  0  0  0  0
    4.7118  -10.1084   -1.8820 H   0  0  0  0  0  0  0  0  0  0  0  0
    2.1916   -9.4769   -5.5981 H   0  0  0  0  0  0  0  0  0  0  0  0
    3.4644   -8.2564   -5.7038 H   0  0  0  0  0  0  0  0  0  0  0  0
    0.8749   -8.1670   -4.0854 H   0  0  0  0  0  0  0  0  0  0  0  0
    1.7491   -6.7912   -4.7857 H   0  0  0  0  0  0  0  0  0  0  0  0
    1.9241   -7.5207   -2.0233 H   0  0  0  0  0  0  0  0  0  0  0  0
    3.2446   -6.6829   -2.8562 H   0  0  0  0  0  0  0  0  0  0  0  0
    3.7140   -5.8490    0.0046 H   0  0  0  0  0  0  0  0  0  0  0  0
  1  2  1  0
  1 26  1  0
  1 27  1  0
  1 28  1  0
  2  3  2  0
  2 25  1  0
  3  4  1  0
  3 29  1  0
  4  5  2  0
  4 30  1  0
  5  6  1  0
  5 31  1  0
  6  7  1  0
  6 25  2  0
  7  8  2  0
  7  9  1  0
  9 10  1  0
  9 32  1  0
 10 11  2  0
 10 24  1  0
 11 12  1  0
 11 33  1  0
 12 13  2  0
 12 34  1  0
 13 14  1  0
 13 35  1  0
 14 15  1  0
 14 24  2  0
 15 16  2  0
 15 17  2  0
 15 18  1  6
 18 19  1  0
 18 36  1  0
 19 20  2  0
 19 23  1  0
 20 21  1  0
 21 22  1  0
 21 37  1  0
 21 38  1  0
 22 23  1  0
 22 39  1  0
 22 40  1  0
 23 41  1  0
 23 42  1  0
 24 43  1  0
M  END

