
     RDKit          3D

 62 64  0  0  0  0  0  0  0  0999 V2000
    1.3444   -0.0585    0.7293 C   0  0  0  0  0  0  0  0  0  0  0  0
    2.4457    0.0878   -0.1572 O   0  0  0  0  0  0  0  0  0  0  0  0
    2.7329   -0.8284   -1.1050 C   0  0  0  0  0  0  0  0  0  0  0  0
    3.6401   -0.4237   -2.0954 C   0  0  0  0  0  0  0  0  0  0  0  0
    4.0475   -1.2792   -3.1239 C   0  0  0  0  0  0  0  0  0  0  0  0
    4.9361   -0.8348   -4.1208 N   0  0  0  0  0  0  0  0  0  0  0  0
    5.8007    0.2072   -4.0408 C   0  0  0  0  0  0  0  0  0  0  0  0
    6.5623    0.6958   -5.0605 C   0  0  0  0  0  0  0  0  0  0  0  0
    7.4784    1.8043   -4.7881 C   0  0  0  0  0  0  0  0  0  0  0  0
    7.5994    2.2947   -3.6688 O   0  0  0  0  0  0  0  0  0  0  0  0
    8.3095    2.3684   -5.9233 C   0  0  0  0  0  0  0  0  0  0  0  0
    9.2371    3.3740   -5.5961 C   0  0  0  0  0  0  0  0  0  0  0  0
   10.0430    3.9524   -6.5720 C   0  0  0  0  0  0  0  0  0  0  0  0
    9.9109    3.5164   -7.8921 C   0  0  0  0  0  0  0  0  0  0  0  0
   10.7614    4.1230   -8.9394 N   0  0  0  0  0  0  0  0  0  0  0  0
   11.5496    4.9881   -8.5943 O   0  0  0  0  0  0  0  0  0  0  0  0
   10.6219    3.7201  -10.0831 O   0  0  0  0  0  0  0  0  0  0  0  0
    8.9989    2.5255   -8.2539 C   0  0  0  0  0  0  0  0  0  0  0  0
    8.2010    1.9546   -7.2624 C   0  0  0  0  0  0  0  0  0  0  0  0
    3.5353   -2.6039   -3.2034 C   0  0  0  0  0  0  0  0  0  0  0  0
    3.9850   -3.5346   -4.2449 C   0  0  0  0  0  0  0  0  0  0  0  0
    3.2601   -4.5517   -4.7652 C   0  0  0  0  0  0  0  0  0  0  0  0
    3.7001   -5.5403   -5.7549 C   0  0  0  0  0  0  0  0  0  0  0  0
    5.0493   -5.6876   -6.1322 C   0  0  0  0  0  0  0  0  0  0  0  0
    5.4150   -6.6354   -7.0949 C   0  0  0  0  0  0  0  0  0  0  0  0
    6.6862   -6.8614   -7.5053 O   0  0  0  0  0  0  0  0  0  0  0  0
    7.7331   -6.0876   -6.9670 C   0  0  0  0  0  0  0  0  0  0  0  0
    4.4324   -7.4427   -7.7121 C   0  0  0  0  0  0  0  0  0  0  0  0
    4.7901   -8.3108   -8.6954 O   0  0  0  0  0  0  0  0  0  0  0  0
    4.9752   -9.6622   -8.3027 C   0  0  0  0  0  0  0  0  0  0  0  0
    3.0863   -7.3147   -7.3144 C   0  0  0  0  0  0  0  0  0  0  0  0
    2.2153   -8.1511   -7.9324 O   0  0  0  0  0  0  0  0  0  0  0  0
    0.8413   -8.0634   -7.6301 C   0  0  0  0  0  0  0  0  0  0  0  0
    2.7265   -6.3673   -6.3460 C   0  0  0  0  0  0  0  0  0  0  0  0
    2.6106   -2.9900   -2.2178 C   0  0  0  0  0  0  0  0  0  0  0  0
    2.2205   -2.1374   -1.1966 C   0  0  0  0  0  0  0  0  0  0  0  0
    1.3582   -2.6054   -0.2690 F   0  0  0  0  0  0  0  0  0  0  0  0
    1.2724    0.8937    1.2719 H   0  0  0  0  0  0  0  0  0  0  0  0
    1.5016   -0.8770    1.4476 H   0  0  0  0  0  0  0  0  0  0  0  0
    0.4043   -0.2363    0.1825 H   0  0  0  0  0  0  0  0  0  0  0  0
    3.9894    0.6074   -2.0422 H   0  0  0  0  0  0  0  0  0  0  0  0
    4.8775   -1.3209   -5.0097 H   0  0  0  0  0  0  0  0  0  0  0  0
    5.9033    0.6825   -3.0614 H   0  0  0  0  0  0  0  0  0  0  0  0
    6.4899    0.2609   -6.0586 H   0  0  0  0  0  0  0  0  0  0  0  0
    9.3018    3.6849   -4.5522 H   0  0  0  0  0  0  0  0  0  0  0  0
   10.7683    4.7307   -6.3361 H   0  0  0  0  0  0  0  0  0  0  0  0
    8.9279    2.2200   -9.2973 H   0  0  0  0  0  0  0  0  0  0  0  0
    7.4859    1.1846   -7.5529 H   0  0  0  0  0  0  0  0  0  0  0  0
    5.0076   -3.3858   -4.6093 H   0  0  0  0  0  0  0  0  0  0  0  0
    2.2176   -4.6569   -4.4443 H   0  0  0  0  0  0  0  0  0  0  0  0
    5.8131   -5.0807   -5.6494 H   0  0  0  0  0  0  0  0  0  0  0  0
    8.6568   -6.4319   -7.4511 H   0  0  0  0  0  0  0  0  0  0  0  0
    7.8299   -6.2248   -5.8746 H   0  0  0  0  0  0  0  0  0  0  0  0
    7.5999   -5.0111   -7.1786 H   0  0  0  0  0  0  0  0  0  0  0  0
    5.2667  -10.2191   -9.2044 H   0  0  0  0  0  0  0  0  0  0  0  0
    4.0445  -10.0959   -7.8984 H   0  0  0  0  0  0  0  0  0  0  0  0
    5.7786   -9.7546   -7.5505 H   0  0  0  0  0  0  0  0  0  0  0  0
    0.3364   -8.8139   -8.2529 H   0  0  0  0  0  0  0  0  0  0  0  0
    0.4311   -7.0660   -7.8700 H   0  0  0  0  0  0  0  0  0  0  0  0
    0.6367   -8.2856   -6.5670 H   0  0  0  0  0  0  0  0  0  0  0  0
    1.6855   -6.2545   -6.0440 H   0  0  0  0  0  0  0  0  0  0  0  0
    2.2118   -4.0056   -2.2020 H   0  0  0  0  0  0  0  0  0  0  0  0
  1  2  1  0
  1 38  1  0
  1 39  1  0
  1 40  1  0
  2  3  1  0
  3  4  2  0
  3 36  1  0
  4  5  1  0
  4 41  1  0
  5  6  1  0
  5 20  2  0
  6  7  1  0
  6 42  1  0
  7  8  2  0
  7 43  1  0
  8  9  1  0
  8 44  1  0
  9 10  2  0
  9 11  1  0
 11 12  2  0
 11 19  1  0
 12 13  1  0
 12 45  1  0
 13 14  2  0
 13 46  1  0
 14 15  1  0
 14 18  1  0
 15 16  1  0
 15 17  1  0
 18 19  2  0
 18 47  1  0
 19 48  1  0
 20 21  1  0
 20 35  1  0
 21 22  2  0
 21 49  1  0
 22 23  1  0
 22 50  1  0
 23 24  1  0
 23 34  2  0
 24 25  2  0
 24 51  1  0
 25 26  1  0
 25 28  1  0
 26 27  1  0
 27 52  1  0
 27 53  1  0
 27 54  1  0
 28 29  2  0
 28 31  1  0
 29 30  1  0
 30 55  1  0
 30 56  1  0
 30 57  1  0
 31 32  2  0
 31 34  1  0
 32 33  1  0
 33 58  1  0
 33 59  1  0
 33 60  1  0
 34 61  1  0
 35 36  2  0
 35 62  1  0
 36 37  1  0
M  CHG  4  16  -1  17  -1  29   1  32   1
M  END

