
     RDKit          3D

 42 43  0  0  0  0  0  0  0  0999 V2000
    0.9315    0.0779    1.1384 C   0  0  0  0  0  0  0  0  0  0  0  0
    2.3265    0.1824    0.5020 C   0  0  1  0  0  0  0  0  0  0  0  0
    2.9054    1.5806    0.7703 C   0  0  0  0  0  0  0  0  0  0  0  0
    3.2865   -0.9425    0.9890 C   0  0  1  0  0  0  0  0  0  0  0  0
    2.7161   -2.3710    0.8344 C   0  0  0  0  0  0  0  0  0  0  0  0
    2.6409   -2.8276   -0.6295 C   0  0  0  0  0  0  0  0  0  0  0  0
    4.0216   -2.7666   -1.3239 C   0  0  2  0  0  0  0  0  0  0  0  0
    4.9716   -3.8959   -0.8959 C   0  0  0  0  0  0  0  0  0  0  0  0
    6.1131   -3.6752   -0.5484 O   0  0  0  0  0  0  0  0  0  0  0  0
    4.4437   -5.3265   -0.9678 C   0  0  0  0  0  0  0  0  0  0  0  0
    5.5532   -6.3871   -0.9337 C   0  0  0  0  0  0  0  0  0  0  0  0
    5.0257   -7.7997   -0.9208 C   0  0  0  0  0  0  0  0  0  0  0  0
    4.4091   -8.4194    0.2198 C   0  0  0  0  0  0  0  0  0  0  0  0
    3.9920   -9.7030   -0.0190 C   0  0  0  0  0  0  0  0  0  0  0  0
    4.3408  -10.1918   -1.6413 S   0  0  0  0  0  0  0  0  0  0  0  0
    5.0517   -8.6542   -1.9990 C   0  0  0  0  0  0  0  0  0  0  0  0
    4.6579   -1.3770   -1.1493 C   0  0  0  0  0  0  0  0  0  0  0  0
    4.6782   -0.9161    0.3169 C   0  0  0  0  0  0  0  0  0  0  0  0
    0.3015    0.9302    0.8371 H   0  0  0  0  0  0  0  0  0  0  0  0
    0.9970    0.0898    2.2406 H   0  0  0  0  0  0  0  0  0  0  0  0
    0.3971   -0.8384    0.8463 H   0  0  0  0  0  0  0  0  0  0  0  0
    2.1960    0.0872   -0.5916 H   0  0  0  0  0  0  0  0  0  0  0  0
    3.0928    1.7293    1.8482 H   0  0  0  0  0  0  0  0  0  0  0  0
    2.2007    2.3635    0.4469 H   0  0  0  0  0  0  0  0  0  0  0  0
    3.8530    1.7569    0.2405 H   0  0  0  0  0  0  0  0  0  0  0  0
    3.4359   -0.7653    2.0709 H   0  0  0  0  0  0  0  0  0  0  0  0
    1.7252   -2.4577    1.3054 H   0  0  0  0  0  0  0  0  0  0  0  0
    3.3725   -3.0620    1.3942 H   0  0  0  0  0  0  0  0  0  0  0  0
    1.9465   -2.1768   -1.1873 H   0  0  0  0  0  0  0  0  0  0  0  0
    2.2117   -3.8401   -0.6937 H   0  0  0  0  0  0  0  0  0  0  0  0
    3.8607   -2.9557   -2.4037 H   0  0  0  0  0  0  0  0  0  0  0  0
    3.8097   -5.4445   -1.8633 H   0  0  0  0  0  0  0  0  0  0  0  0
    3.7582   -5.4685   -0.1122 H   0  0  0  0  0  0  0  0  0  0  0  0
    6.1804   -6.2059   -0.0466 H   0  0  0  0  0  0  0  0  0  0  0  0
    6.2160   -6.2433   -1.8013 H   0  0  0  0  0  0  0  0  0  0  0  0
    4.2928   -7.9245    1.1866 H   0  0  0  0  0  0  0  0  0  0  0  0
    3.5070  -10.3930    0.6702 H   0  0  0  0  0  0  0  0  0  0  0  0
    5.4614   -8.4599   -2.9899 H   0  0  0  0  0  0  0  0  0  0  0  0
    4.0934   -0.6565   -1.7656 H   0  0  0  0  0  0  0  0  0  0  0  0
    5.6858   -1.3943   -1.5413 H   0  0  0  0  0  0  0  0  0  0  0  0
    5.1300    0.0854    0.3832 H   0  0  0  0  0  0  0  0  0  0  0  0
    5.3496   -1.5847    0.8793 H   0  0  0  0  0  0  0  0  0  0  0  0
  1  2  1  0
  1 19  1  0
  1 20  1  0
  1 21  1  0
  2  3  1  0
  2  4  1  0
  2 22  1  6
  3 23  1  0
  3 24  1  0
  3 25  1  0
  4  5  1  0
  4 18  1  0
  4 26  1  1
  5  6  1  0
  5 27  1  0
  5 28  1  0
  6  7  1  0
  6 29  1  0
  6 30  1  0
  7  8  1  0
  7 17  1  0
  7 31  1  6
  8  9  2  0
  8 10  1  0
 10 11  1  0
 10 32  1  0
 10 33  1  0
 11 12  1  0
 11 34  1  0
 11 35  1  0
 12 13  1  0
 12 16  2  0
 13 14  2  0
 13 36  1  0
 14 15  1  0
 14 37  1  0
 15 16  1  0
 16 38  1  0
 17 18  1  0
 17 39  1  0
 17 40  1  0
 18 41  1  0
 18 42  1  0
M  END

