
     RDKit          3D

 51 53  0  0  0  0  0  0  0  0999 V2000
    4.6775    1.0861    2.5578 C   0  0  0  0  0  0  0  0  0  0  0  0
    6.0299    0.4668    2.9131 C   0  0  0  0  0  0  0  0  0  0  0  0
    7.0282    0.4762    1.7521 C   0  0  0  0  0  0  0  0  0  0  0  0
    8.3918   -0.1460    2.0801 C   0  0  0  0  0  0  0  0  0  0  0  0
    8.3361   -1.5614    2.4163 N   0  0  0  0  0  0  0  0  0  0  0  0
    8.5411   -2.5374    1.4807 C   0  0  0  0  0  0  0  0  0  0  0  0
    8.8013   -2.2813    0.3135 O   0  0  0  0  0  0  0  0  0  0  0  0
    8.4508   -3.9628    1.9676 C   0  0  0  0  0  0  0  0  0  0  0  0
    7.7902   -4.3550    3.1409 C   0  0  0  0  0  0  0  0  0  0  0  0
    7.7371   -5.6990    3.5192 C   0  0  0  0  0  0  0  0  0  0  0  0
    8.3479   -6.6806    2.7302 C   0  0  0  0  0  0  0  0  0  0  0  0
    8.2799   -8.1469    3.0887 C   0  0  0  0  0  0  0  0  0  0  0  0
    7.9467   -8.2976    4.4545 O   0  0  0  0  0  0  0  0  0  0  0  0
    7.8083   -9.5394    4.9836 C   0  0  0  0  0  0  0  0  0  0  0  0
    7.9850  -10.7331    4.2648 C   0  0  0  0  0  0  0  0  0  0  0  0
    7.8155  -11.9586    4.9209 C   0  0  0  0  0  0  0  0  0  0  0  0
    7.4769  -12.0090    6.2679 C   0  0  0  0  0  0  0  0  0  0  0  0
    7.2966  -10.8141    7.0052 C   0  0  0  0  0  0  0  0  0  0  0  0
    6.9425  -10.9365    8.4134 C   0  0  0  0  0  0  0  0  0  0  0  0
    6.7010  -10.0041    9.3672 C   0  0  0  0  0  0  0  0  0  0  0  0
    6.7213   -8.2364    9.2731 S   0  0  0  0  0  0  0  0  0  0  0  0
    6.2859   -8.0529   10.9894 C   0  0  0  0  0  0  0  0  0  0  0  0
    6.0901   -6.6157   11.7476 S   0  0  0  0  0  0  0  0  0  0  0  0
    6.1489   -9.2982   11.5442 N   0  0  0  0  0  0  0  0  0  0  0  0
    6.3511  -10.4345   10.7557 C   0  0  0  0  0  0  0  0  0  0  0  0
    6.2501  -11.5681   11.1651 O   0  0  0  0  0  0  0  0  0  0  0  0
    7.4675   -9.5862    6.3429 C   0  0  0  0  0  0  0  0  0  0  0  0
    9.0032   -6.2910    1.5513 C   0  0  0  0  0  0  0  0  0  0  0  0
    9.0443   -4.9528    1.1689 C   0  0  0  0  0  0  0  0  0  0  0  0
    3.9832    1.0616    3.4128 H   0  0  0  0  0  0  0  0  0  0  0  0
    4.1986    0.5470    1.7235 H   0  0  0  0  0  0  0  0  0  0  0  0
    4.7877    2.1390    2.2484 H   0  0  0  0  0  0  0  0  0  0  0  0
    5.8766   -0.5741    3.2504 H   0  0  0  0  0  0  0  0  0  0  0  0
    6.4677    1.0053    3.7746 H   0  0  0  0  0  0  0  0  0  0  0  0
    7.2004    1.5169    1.4223 H   0  0  0  0  0  0  0  0  0  0  0  0
    6.6014   -0.0554    0.8838 H   0  0  0  0  0  0  0  0  0  0  0  0
    8.8594    0.3898    2.9239 H   0  0  0  0  0  0  0  0  0  0  0  0
    9.0568   -0.0493    1.2098 H   0  0  0  0  0  0  0  0  0  0  0  0
    8.2202   -1.8288    3.3842 H   0  0  0  0  0  0  0  0  0  0  0  0
    7.2800   -3.6183    3.7670 H   0  0  0  0  0  0  0  0  0  0  0  0
    7.2185   -5.9914    4.4328 H   0  0  0  0  0  0  0  0  0  0  0  0
    9.2511   -8.6308    2.8728 H   0  0  0  0  0  0  0  0  0  0  0  0
    7.5201   -8.6499    2.4577 H   0  0  0  0  0  0  0  0  0  0  0  0
    8.2522  -10.7218    3.2084 H   0  0  0  0  0  0  0  0  0  0  0  0
    7.9533  -12.8861    4.3598 H   0  0  0  0  0  0  0  0  0  0  0  0
    7.3481  -12.9718    6.7671 H   0  0  0  0  0  0  0  0  0  0  0  0
    6.8484  -11.9613    8.7899 H   0  0  0  0  0  0  0  0  0  0  0  0
    5.9007   -9.3913   12.5260 H   0  0  0  0  0  0  0  0  0  0  0  0
    7.3463   -8.6311    6.8532 H   0  0  0  0  0  0  0  0  0  0  0  0
    9.4873   -7.0454    0.9235 H   0  0  0  0  0  0  0  0  0  0  0  0
    9.5389   -4.6418    0.2470 H   0  0  0  0  0  0  0  0  0  0  0  0
  1  2  1  0
  1 30  1  0
  1 31  1  0
  1 32  1  0
  2  3  1  0
  2 33  1  0
  2 34  1  0
  3  4  1  0
  3 35  1  0
  3 36  1  0
  4  5  1  0
  4 37  1  0
  4 38  1  0
  5  6  1  0
  5 39  1  0
  6  7  2  0
  6  8  1  0
  8  9  2  0
  8 29  1  0
  9 10  1  0
  9 40  1  0
 10 11  2  0
 10 41  1  0
 11 12  1  0
 11 28  1  0
 12 13  1  0
 12 42  1  0
 12 43  1  0
 13 14  1  0
 14 15  2  0
 14 27  1  0
 15 16  1  0
 15 44  1  0
 16 17  2  0
 16 45  1  0
 17 18  1  0
 17 46  1  0
 18 19  1  0
 18 27  2  0
 19 20  2  0
 19 47  1  0
 20 21  1  0
 20 25  1  0
 21 22  1  0
 22 23  2  0
 22 24  1  0
 24 25  1  0
 24 48  1  0
 25 26  2  0
 27 49  1  0
 28 29  2  0
 28 50  1  0
 29 51  1  0
M  END

