
     RDKit          3D

 54 57  0  0  0  0  0  0  0  0999 V2000
    3.0389    0.6049   -1.4604 C   0  0  0  0  0  0  0  0  0  0  0  0
    3.7351    0.6457   -0.1209 C   0  0  0  0  0  0  0  0  0  0  0  0
    3.2251    1.4713    0.9203 C   0  0  0  0  0  0  0  0  0  0  0  0
    2.0303    2.1748    0.6797 N   0  0  0  0  0  0  0  0  0  0  0  0
    1.3914    3.0892    1.4918 C   0  0  0  0  0  0  0  0  0  0  0  0
    1.8092    3.4676    2.5724 O   0  0  0  0  0  0  0  0  0  0  0  0
    0.0746    3.6629    0.9390 C   0  0  1  0  0  0  0  0  0  0  0  0
    0.3152    5.0029    0.2071 C   0  0  0  0  0  0  0  0  0  0  0  0
    0.8974    4.7857   -1.1930 C   0  0  0  0  0  0  0  0  0  0  0  0
    0.0541    3.7914   -1.9946 C   0  0  0  0  0  0  0  0  0  0  0  0
   -0.1166    2.5294   -1.2614 N   0  0  0  0  0  0  0  0  0  0  0  0
   -0.7050    1.4567   -2.0595 C   0  0  0  0  0  0  0  0  0  0  0  0
   -2.1104    1.7151   -2.5357 C   0  0  0  0  0  0  0  0  0  0  0  0
   -3.2242    1.6084   -1.8770 N   0  0  0  0  0  0  0  0  0  0  0  0
   -4.1631    2.0352   -2.7904 C   0  0  0  0  0  0  0  0  0  0  0  0
   -5.6219    2.0572   -2.5735 C   0  0  0  0  0  0  0  0  0  0  0  0
   -6.4610    1.7616   -3.6652 C   0  0  0  0  0  0  0  0  0  0  0  0
   -7.8473    1.7569   -3.5505 C   0  0  0  0  0  0  0  0  0  0  0  0
   -8.4234    2.0560   -2.3121 C   0  0  0  0  0  0  0  0  0  0  0  0
  -10.1574    2.0462   -2.1362 Cl  0  0  0  0  0  0  0  0  0  0  0  0
   -7.6263    2.3680   -1.2100 C   0  0  0  0  0  0  0  0  0  0  0  0
   -6.2344    2.3734   -1.3434 C   0  0  0  0  0  0  0  0  0  0  0  0
   -5.3105    2.8400    0.0619 Cl  0  0  0  0  0  0  0  0  0  0  0  0
   -3.6482    2.3842   -3.9505 N   0  0  0  0  0  0  0  0  0  0  0  0
   -2.2914    2.1739   -3.7852 O   0  0  0  0  0  0  0  0  0  0  0  0
   -0.7517    2.7208    0.0505 C   0  0  0  0  0  0  0  0  0  0  0  0
    3.8992    1.5662    2.1527 C   0  0  0  0  0  0  0  0  0  0  0  0
    5.0756    0.8511    2.3720 C   0  0  0  0  0  0  0  0  0  0  0  0
    5.5957    0.0270    1.3809 C   0  0  0  0  0  0  0  0  0  0  0  0
    4.9078   -0.0755    0.1692 C   0  0  0  0  0  0  0  0  0  0  0  0
    5.4864   -1.0198   -0.8107 N   0  0  0  0  0  0  0  0  0  0  0  0
    4.7203   -1.6415   -1.5340 O   0  0  0  0  0  0  0  0  0  0  0  0
    6.6998   -1.1483   -0.8161 O   0  0  0  0  0  0  0  0  0  0  0  0
    2.7002    1.6099   -1.7538 H   0  0  0  0  0  0  0  0  0  0  0  0
    2.1533   -0.0529   -1.4305 H   0  0  0  0  0  0  0  0  0  0  0  0
    3.6842    0.2175   -2.2537 H   0  0  0  0  0  0  0  0  0  0  0  0
    1.5535    2.0166   -0.2121 H   0  0  0  0  0  0  0  0  0  0  0  0
   -0.5095    3.8710    1.8477 H   0  0  0  0  0  0  0  0  0  0  0  0
    0.9681    5.6478    0.8152 H   0  0  0  0  0  0  0  0  0  0  0  0
   -0.6555    5.5227    0.1210 H   0  0  0  0  0  0  0  0  0  0  0  0
    1.9333    4.4146   -1.1210 H   0  0  0  0  0  0  0  0  0  0  0  0
    0.9434    5.7407   -1.7412 H   0  0  0  0  0  0  0  0  0  0  0  0
    0.5353    3.5687   -2.9606 H   0  0  0  0  0  0  0  0  0  0  0  0
   -0.9303    4.2531   -2.2279 H   0  0  0  0  0  0  0  0  0  0  0  0
   -0.7230    0.5363   -1.4565 H   0  0  0  0  0  0  0  0  0  0  0  0
   -0.0708    1.2774   -2.9410 H   0  0  0  0  0  0  0  0  0  0  0  0
   -5.9954    1.5230   -4.6229 H   0  0  0  0  0  0  0  0  0  0  0  0
   -8.4799    1.5178   -4.4062 H   0  0  0  0  0  0  0  0  0  0  0  0
   -8.0800    2.6169   -0.2511 H   0  0  0  0  0  0  0  0  0  0  0  0
   -0.8636    1.7345    0.5288 H   0  0  0  0  0  0  0  0  0  0  0  0
   -1.7748    3.1362   -0.0497 H   0  0  0  0  0  0  0  0  0  0  0  0
    3.4852    2.2148    2.9203 H   0  0  0  0  0  0  0  0  0  0  0  0
    5.5867    0.9384    3.3333 H   0  0  0  0  0  0  0  0  0  0  0  0
    6.5126   -0.5439    1.5207 H   0  0  0  0  0  0  0  0  0  0  0  0
  1  2  1  0
  1 34  1  0
  1 35  1  0
  1 36  1  0
  2  3  2  0
  2 30  1  0
  3  4  1  0
  3 27  1  0
  4  5  1  0
  4 37  1  0
  5  6  2  0
  5  7  1  0
  7  8  1  0
  7 26  1  0
  7 38  1  1
  8  9  1  0
  8 39  1  0
  8 40  1  0
  9 10  1  0
  9 41  1  0
  9 42  1  0
 10 11  1  0
 10 43  1  0
 10 44  1  0
 11 12  1  0
 11 26  1  0
 12 13  1  0
 12 45  1  0
 12 46  1  0
 13 14  2  0
 13 25  1  0
 14 15  1  0
 15 16  1  0
 15 24  2  0
 16 17  2  0
 16 22  1  0
 17 18  1  0
 17 47  1  0
 18 19  2  0
 18 48  1  0
 19 20  1  0
 19 21  1  0
 21 22  2  0
 21 49  1  0
 22 23  1  0
 24 25  1  0
 26 50  1  0
 26 51  1  0
 27 28  2  0
 27 52  1  0
 28 29  1  0
 28 53  1  0
 29 30  2  0
 29 54  1  0
 30 31  1  0
 31 32  2  0
 31 33  1  0
M  CHG  2  31   1  33  -1
M  END

