
     RDKit          3D

 48 51  0  0  0  0  0  0  0  0999 V2000
   -1.4584   -0.5395    0.6688 C   0  0  0  0  0  0  0  0  0  0  0  0
   -0.4819   -1.5289    0.5518 C   0  0  0  0  0  0  0  0  0  0  0  0
    0.8048   -1.2206    0.0996 C   0  0  0  0  0  0  0  0  0  0  0  0
    1.1489    0.0981   -0.2671 C   0  0  0  0  0  0  0  0  0  0  0  0
    2.4230    0.4287   -0.7671 N   0  0  0  0  0  0  0  0  0  0  0  0
    3.3618   -0.6423   -1.0652 C   0  0  0  0  0  0  0  0  0  0  0  0
    4.4629   -0.1387   -2.0099 C   0  0  0  0  0  0  0  0  0  0  0  0
    5.1565    1.0570   -1.5404 N   0  0  0  0  0  0  0  0  0  0  0  0
    6.1734    0.8311   -0.5145 C   0  0  0  0  0  0  0  0  0  0  0  0
    7.1674    1.9506   -0.4604 C   0  0  0  0  0  0  0  0  0  0  0  0
    7.2618    2.8584    0.4944 N   0  0  0  0  0  0  0  0  0  0  0  0
    8.2684    3.6847    0.1386 N   0  0  0  0  0  0  0  0  0  0  0  0
    8.7863    3.3229   -0.9829 N   0  0  0  0  0  0  0  0  0  0  0  0
    8.1143    2.2279   -1.3903 N   0  0  0  0  0  0  0  0  0  0  0  0
    8.4255    1.5867   -2.6579 C   0  0  0  0  0  0  0  0  0  0  0  0
    7.6875    2.2076   -3.8496 C   0  0  1  0  0  0  0  0  0  0  0  0
    8.0981    3.6384   -4.2255 C   0  0  0  0  0  0  0  0  0  0  0  0
    7.8894    3.6329   -5.7450 C   0  0  0  0  0  0  0  0  0  0  0  0
    8.3246    2.2116   -6.1109 C   0  0  0  0  0  0  0  0  0  0  0  0
    7.9876    1.3997   -4.9869 O   0  0  0  0  0  0  0  0  0  0  0  0
    4.1847    2.1043   -1.2157 C   0  0  0  0  0  0  0  0  0  0  0  0
    3.0832    1.6335   -0.2598 C   0  0  0  0  0  0  0  0  0  0  0  0
    0.1481    1.0897   -0.1469 C   0  0  0  0  0  0  0  0  0  0  0  0
   -1.1271    0.7739    0.3161 C   0  0  0  0  0  0  0  0  0  0  0  0
   -2.4609   -0.7841    1.0270 H   0  0  0  0  0  0  0  0  0  0  0  0
   -0.7131   -2.5615    0.8277 H   0  0  0  0  0  0  0  0  0  0  0  0
    1.5443   -2.0195    0.0477 H   0  0  0  0  0  0  0  0  0  0  0  0
    2.8278   -1.4633   -1.5660 H   0  0  0  0  0  0  0  0  0  0  0  0
    3.8132   -1.0673   -0.1399 H   0  0  0  0  0  0  0  0  0  0  0  0
    3.9974    0.1033   -2.9811 H   0  0  0  0  0  0  0  0  0  0  0  0
    5.1958   -0.9418   -2.1888 H   0  0  0  0  0  0  0  0  0  0  0  0
    6.6972   -0.1078   -0.7580 H   0  0  0  0  0  0  0  0  0  0  0  0
    5.7785    0.7183    0.5136 H   0  0  0  0  0  0  0  0  0  0  0  0
    8.1528    0.5249   -2.5867 H   0  0  0  0  0  0  0  0  0  0  0  0
    9.5125    1.6534   -2.8063 H   0  0  0  0  0  0  0  0  0  0  0  0
    6.6033    2.1524   -3.6361 H   0  0  0  0  0  0  0  0  0  0  0  0
    9.1587    3.8104   -3.9784 H   0  0  0  0  0  0  0  0  0  0  0  0
    7.5105    4.4039   -3.6993 H   0  0  0  0  0  0  0  0  0  0  0  0
    8.4674    4.4089   -6.2686 H   0  0  0  0  0  0  0  0  0  0  0  0
    6.8244    3.7826   -5.9877 H   0  0  0  0  0  0  0  0  0  0  0  0
    9.4152    2.1625   -6.2966 H   0  0  0  0  0  0  0  0  0  0  0  0
    7.8140    1.8139   -7.0034 H   0  0  0  0  0  0  0  0  0  0  0  0
    3.7172    2.4376   -2.1584 H   0  0  0  0  0  0  0  0  0  0  0  0
    4.7082    2.9676   -0.7772 H   0  0  0  0  0  0  0  0  0  0  0  0
    2.3519    2.4425   -0.1413 H   0  0  0  0  0  0  0  0  0  0  0  0
    3.5089    1.4459    0.7503 H   0  0  0  0  0  0  0  0  0  0  0  0
    0.3628    2.1172   -0.4454 H   0  0  0  0  0  0  0  0  0  0  0  0
   -1.8771    1.5661    0.3897 H   0  0  0  0  0  0  0  0  0  0  0  0
  1  2  2  0
  1 24  1  0
  1 25  1  0
  2  3  1  0
  2 26  1  0
  3  4  2  0
  3 27  1  0
  4  5  1  0
  4 23  1  0
  5  6  1  0
  5 22  1  0
  6  7  1  0
  6 28  1  0
  6 29  1  0
  7  8  1  0
  7 30  1  0
  7 31  1  0
  8  9  1  0
  8 21  1  0
  9 10  1  0
  9 32  1  0
  9 33  1  0
 10 11  2  0
 10 14  1  0
 11 12  1  0
 12 13  2  0
 13 14  1  0
 14 15  1  0
 15 16  1  0
 15 34  1  0
 15 35  1  0
 16 17  1  0
 16 20  1  0
 16 36  1  1
 17 18  1  0
 17 37  1  0
 17 38  1  0
 18 19  1  0
 18 39  1  0
 18 40  1  0
 19 20  1  0
 19 41  1  0
 19 42  1  0
 21 22  1  0
 21 43  1  0
 21 44  1  0
 22 45  1  0
 22 46  1  0
 23 24  2  0
 23 47  1  0
 24 48  1  0
M  END

