
     RDKit          3D

 54 52  0  0  0  0  0  0  0  0999 V2000
    5.2525    0.7355    0.5045 C   0  0  0  0  0  0  0  0  0  0  0  0
    4.1344    1.1479    1.1400 C   0  0  0  0  0  0  0  0  0  0  0  0
    2.8652    1.3585    0.3553 C   0  0  0  0  0  0  0  0  0  0  0  0
    2.4306    0.4596   -0.5622 C   0  0  0  0  0  0  0  0  0  0  0  0
    2.9347   -0.9208   -0.8658 C   0  0  0  0  0  0  0  0  0  0  0  0
    2.1069    2.6451    0.5307 C   0  0  0  0  0  0  0  0  0  0  0  0
    0.7648    2.6870    0.6798 C   0  0  0  0  0  0  0  0  0  0  0  0
   -0.2264    1.5647    0.7922 C   0  0  0  0  0  0  0  0  0  0  0  0
    2.9423    3.9283    0.4377 C   0  0  1  0  0  0  0  0  0  0  0  0
    3.6069    4.0369   -0.9500 C   0  0  0  0  0  0  0  0  0  0  0  0
    2.1944    5.2473    0.7294 C   0  0  0  0  0  0  0  0  0  0  0  0
    1.6008    5.4664    2.1108 C   0  0  0  0  0  0  0  0  0  0  0  0
    2.2586    5.0209    3.2678 C   0  0  0  0  0  0  0  0  0  0  0  0
    1.7596    5.2443    4.5518 C   0  0  0  0  0  0  0  0  0  0  0  0
    0.5653    5.9453    4.6784 C   0  0  0  0  0  0  0  0  0  0  0  0
    0.0555    6.1760    5.8992 F   0  0  0  0  0  0  0  0  0  0  0  0
   -0.1209    6.4225    3.5678 C   0  0  0  0  0  0  0  0  0  0  0  0
    0.3921    6.1822    2.2830 C   0  0  0  0  0  0  0  0  0  0  0  0
   -0.4681    6.7946    0.8377 S   0  0  0  0  0  0  0  0  0  0  0  0
    4.1878    1.4466    2.6128 C   0  0  0  0  0  0  0  0  0  0  0  0
    5.4264    2.7222    3.1249 P   0  0  0  0  0  0  0  0  0  0  0  0
    3.2593    0.9036    3.4836 C   0  0  0  0  0  0  0  0  0  0  0  0
    2.3019   -0.1818    3.0294 C   0  0  0  0  0  0  0  0  0  0  0  0
    3.0982    1.3622    4.8618 C   0  0  0  0  0  0  0  0  0  0  0  0
    1.7787    1.0699    5.5420 C   0  0  0  0  0  0  0  0  0  0  0  0
    4.2571    2.2121    5.6914 S   0  0  0  0  0  0  0  0  0  0  0  0
    5.2595    0.5533   -0.5720 H   0  0  0  0  0  0  0  0  0  0  0  0
    6.1866    0.5635    1.0439 H   0  0  0  0  0  0  0  0  0  0  0  0
    1.5664    0.7653   -1.1615 H   0  0  0  0  0  0  0  0  0  0  0  0
    3.6404   -1.3017   -0.1144 H   0  0  0  0  0  0  0  0  0  0  0  0
    3.4434   -0.9577   -1.8464 H   0  0  0  0  0  0  0  0  0  0  0  0
    2.0859   -1.6229   -0.9396 H   0  0  0  0  0  0  0  0  0  0  0  0
    0.2998    3.6744    0.7437 H   0  0  0  0  0  0  0  0  0  0  0  0
    0.2397    0.5766    0.8955 H   0  0  0  0  0  0  0  0  0  0  0  0
   -0.8843    1.5304   -0.0954 H   0  0  0  0  0  0  0  0  0  0  0  0
   -0.8935    1.7332    1.6556 H   0  0  0  0  0  0  0  0  0  0  0  0
    3.7628    3.8395    1.1707 H   0  0  0  0  0  0  0  0  0  0  0  0
    2.8443    4.1562   -1.7375 H   0  0  0  0  0  0  0  0  0  0  0  0
    4.1975    3.1410   -1.1890 H   0  0  0  0  0  0  0  0  0  0  0  0
    4.2809    4.9075   -0.9958 H   0  0  0  0  0  0  0  0  0  0  0  0
    1.4079    5.3708   -0.0330 H   0  0  0  0  0  0  0  0  0  0  0  0
    2.9070    6.0692    0.5323 H   0  0  0  0  0  0  0  0  0  0  0  0
    3.1998    4.4768    3.1750 H   0  0  0  0  0  0  0  0  0  0  0  0
    2.2841    4.8787    5.4364 H   0  0  0  0  0  0  0  0  0  0  0  0
   -1.0477    6.9779    3.7228 H   0  0  0  0  0  0  0  0  0  0  0  0
   -1.5784    7.2006    1.4927 H   0  0  0  0  0  0  0  0  0  0  0  0
    6.1066    2.7575    1.8610 H   0  0  0  0  0  0  0  0  0  0  0  0
    6.4271    1.9796    3.8035 H   0  0  0  0  0  0  0  0  0  0  0  0
    2.6119   -0.6314    2.0813 H   0  0  0  0  0  0  0  0  0  0  0  0
    1.2745    0.1933    2.9044 H   0  0  0  0  0  0  0  0  0  0  0  0
    2.2596   -0.9874    3.7791 H   0  0  0  0  0  0  0  0  0  0  0  0
    1.6689   -0.0115    5.7320 H   0  0  0  0  0  0  0  0  0  0  0  0
    0.9242    1.3702    4.9130 H   0  0  0  0  0  0  0  0  0  0  0  0
    1.7223    1.5939    6.5034 H   0  0  0  0  0  0  0  0  0  0  0  0
  1  2  2  0
  1 27  1  0
  1 28  1  0
  2  3  1  0
  2 20  1  0
  3  4  2  0
  3  6  1  0
  4  5  1  0
  4 29  1  0
  5 30  1  0
  5 31  1  0
  5 32  1  0
  6  7  2  0
  6  9  1  0
  7  8  1  0
  7 33  1  0
  8 34  1  0
  8 35  1  0
  8 36  1  0
  9 10  1  0
  9 11  1  0
  9 37  1  1
 10 38  1  0
 10 39  1  0
 10 40  1  0
 11 12  1  0
 11 41  1  0
 11 42  1  0
 12 13  2  0
 12 18  1  0
 13 14  1  0
 13 43  1  0
 14 15  2  0
 14 44  1  0
 15 16  1  0
 15 17  1  0
 17 18  2  0
 17 45  1  0
 18 19  1  0
 19 46  1  0
 20 21  1  0
 20 22  2  0
 22 23  1  0
 22 24  1  0
 23 49  1  0
 23 50  1  0
 23 51  1  0
 24 25  1  0
 24 26  2  0
 25 52  1  0
 25 53  1  0
 25 54  1  0
M  CHG  3  21  -2  47   1  48   1
M  END

