
     RDKit          3D

 50 52  0  0  0  0  0  0  0  0999 V2000
    1.8315   -0.4207    0.5545 C   0  0  0  0  0  0  0  0  0  0  0  0
    3.1556   -0.1568    0.1536 O   0  0  0  0  0  0  0  0  0  0  0  0
    3.4393    1.0331   -0.4418 C   0  0  0  0  0  0  0  0  0  0  0  0
    2.5077    2.0425   -0.6970 C   0  0  0  0  0  0  0  0  0  0  0  0
    2.9156    3.2323   -1.3191 C   0  0  0  0  0  0  0  0  0  0  0  0
    4.2460    3.4302   -1.6917 C   0  0  0  0  0  0  0  0  0  0  0  0
    4.7469    4.5857   -2.3185 N   0  0  0  0  0  0  0  0  0  0  0  0
    4.0754    5.7203   -2.6858 C   0  0  0  0  0  0  0  0  0  0  0  0
    2.8781    5.9036   -2.5060 O   0  0  0  0  0  0  0  0  0  0  0  0
    4.9461    6.7514   -3.3471 C   0  0  1  0  0  0  0  0  0  0  0  0
    4.3465    7.5840   -4.4442 C   0  0  0  0  0  0  0  0  0  0  0  0
    4.5822    8.2099   -3.0950 C   0  0  2  0  0  0  0  0  0  0  0  0
    5.7406    9.1618   -2.9646 C   0  0  0  0  0  0  0  0  0  0  0  0
    6.7968    8.9178   -3.5406 O   0  0  0  0  0  0  0  0  0  0  0  0
    5.5828   10.2903   -2.1957 N   0  0  0  0  0  0  0  0  0  0  0  0
    6.7224   11.1942   -2.0254 C   0  0  0  0  0  0  0  0  0  0  0  0
    6.3338   12.6240   -2.4325 C   0  0  0  0  0  0  0  0  0  0  0  0
    5.1370   13.1162   -1.7583 N   0  0  0  0  0  0  0  0  0  0  0  0
    5.3406   13.5999   -0.4056 C   0  0  0  0  0  0  0  0  0  0  0  0
    4.0331   12.1834   -1.9276 C   0  0  0  0  0  0  0  0  0  0  0  0
    4.3703   10.7366   -1.5142 C   0  0  0  0  0  0  0  0  0  0  0  0
    5.1855    2.3968   -1.4277 C   0  0  0  0  0  0  0  0  0  0  0  0
    6.4639    2.6657   -1.8219 O   0  0  0  0  0  0  0  0  0  0  0  0
    7.4737    1.7036   -1.6077 C   0  0  0  0  0  0  0  0  0  0  0  0
    4.7859    1.2160   -0.8114 C   0  0  0  0  0  0  0  0  0  0  0  0
    1.8330   -1.4227    1.0047 H   0  0  0  0  0  0  0  0  0  0  0  0
    1.1322   -0.4149   -0.3015 H   0  0  0  0  0  0  0  0  0  0  0  0
    1.4748    0.3079    1.3053 H   0  0  0  0  0  0  0  0  0  0  0  0
    1.4595    1.9283   -0.4225 H   0  0  0  0  0  0  0  0  0  0  0  0
    2.1984    4.0243   -1.5230 H   0  0  0  0  0  0  0  0  0  0  0  0
    5.7405    4.5452   -2.5168 H   0  0  0  0  0  0  0  0  0  0  0  0
    6.0184    6.5544   -3.4252 H   0  0  0  0  0  0  0  0  0  0  0  0
    3.3086    7.3723   -4.7124 H   0  0  0  0  0  0  0  0  0  0  0  0
    5.0191    7.8849   -5.2507 H   0  0  0  0  0  0  0  0  0  0  0  0
    3.6917    8.3353   -2.4801 H   0  0  0  0  0  0  0  0  0  0  0  0
    7.5460   10.8111   -2.6400 H   0  0  0  0  0  0  0  0  0  0  0  0
    7.0447   11.1707   -0.9668 H   0  0  0  0  0  0  0  0  0  0  0  0
    6.1498   12.6369   -3.5222 H   0  0  0  0  0  0  0  0  0  0  0  0
    7.1719   13.3118   -2.2346 H   0  0  0  0  0  0  0  0  0  0  0  0
    6.1112   14.3879   -0.4082 H   0  0  0  0  0  0  0  0  0  0  0  0
    5.6569   12.8343    0.3376 H   0  0  0  0  0  0  0  0  0  0  0  0
    4.4080   14.0523   -0.0307 H   0  0  0  0  0  0  0  0  0  0  0  0
    3.7442   12.1734   -2.9948 H   0  0  0  0  0  0  0  0  0  0  0  0
    3.1611   12.5387   -1.3545 H   0  0  0  0  0  0  0  0  0  0  0  0
    3.5262   10.0816   -1.7558 H   0  0  0  0  0  0  0  0  0  0  0  0
    4.5238   10.6805   -0.4192 H   0  0  0  0  0  0  0  0  0  0  0  0
    8.4051    2.1329   -2.0002 H   0  0  0  0  0  0  0  0  0  0  0  0
    7.2575    0.7616   -2.1420 H   0  0  0  0  0  0  0  0  0  0  0  0
    7.6033    1.4825   -0.5335 H   0  0  0  0  0  0  0  0  0  0  0  0
    5.4863    0.4099   -0.5986 H   0  0  0  0  0  0  0  0  0  0  0  0
  1  2  1  0
  1 26  1  0
  1 27  1  0
  1 28  1  0
  2  3  1  0
  3  4  2  0
  3 25  1  0
  4  5  1  0
  4 29  1  0
  5  6  2  0
  5 30  1  0
  6  7  1  0
  6 22  1  0
  7  8  1  0
  7 31  1  0
  8  9  2  0
  8 10  1  0
 10 11  1  0
 10 12  1  0
 10 32  1  6
 11 12  1  0
 11 33  1  0
 11 34  1  0
 12 13  1  0
 12 35  1  1
 13 14  2  0
 13 15  1  0
 15 16  1  0
 15 21  1  0
 16 17  1  0
 16 36  1  0
 16 37  1  0
 17 18  1  0
 17 38  1  0
 17 39  1  0
 18 19  1  0
 18 20  1  0
 19 40  1  0
 19 41  1  0
 19 42  1  0
 20 21  1  0
 20 43  1  0
 20 44  1  0
 21 45  1  0
 21 46  1  0
 22 23  1  0
 22 25  2  0
 23 24  1  0
 24 47  1  0
 24 48  1  0
 24 49  1  0
 25 50  1  0
M  END

