
     RDKit          3D

 36 36  0  0  0  0  0  0  0  0999 V2000
    8.8319    1.3635   -7.9221 C   0  0  0  0  0  0  0  0  0  0  0  0
    8.6957    2.5156   -6.9417 C   0  0  0  0  0  0  0  0  0  0  0  0
    7.5433    2.3528   -6.0898 O   0  0  0  0  0  0  0  0  0  0  0  0
    7.6843    1.6321   -4.9712 C   0  0  0  0  0  0  0  0  0  0  0  0
    8.7217    1.1155   -4.6191 O   0  0  0  0  0  0  0  0  0  0  0  0
    6.3949    1.5580   -4.2095 C   0  0  0  0  0  0  0  0  0  0  0  0
    5.2197    2.1139   -4.8263 C   0  0  0  0  0  0  0  0  0  0  0  0
    4.2510    2.5480   -5.2964 N   0  0  0  0  0  0  0  0  0  0  0  0
    6.2878    1.0088   -2.9705 C   0  0  0  0  0  0  0  0  0  0  0  0
    7.3726    0.4084   -2.1195 C   0  0  1  0  0  0  0  0  0  0  0  0
    7.0264    0.4887   -0.6183 C   0  0  0  0  0  0  0  0  0  0  0  0
    6.0101   -0.5790   -0.2165 C   0  0  0  0  0  0  0  0  0  0  0  0
    6.4511   -1.8781   -0.5484 O   0  0  0  0  0  0  0  0  0  0  0  0
    6.7263   -2.1259   -1.9383 C   0  0  2  0  0  0  0  0  0  0  0  0
    5.4174   -2.1852   -2.7447 C   0  0  0  0  0  0  0  0  0  0  0  0
    7.3932   -3.5038   -1.9546 C   0  0  0  0  0  0  0  0  0  0  0  0
    7.7177   -1.0680   -2.4725 C   0  0  0  0  0  0  0  0  0  0  0  0
    9.6705    1.5585   -8.6095 H   0  0  0  0  0  0  0  0  0  0  0  0
    7.9156    1.2461   -8.5209 H   0  0  0  0  0  0  0  0  0  0  0  0
    9.0363    0.4198   -7.3948 H   0  0  0  0  0  0  0  0  0  0  0  0
    8.5180    3.4669   -7.4626 H   0  0  0  0  0  0  0  0  0  0  0  0
    9.5917    2.6097   -6.3109 H   0  0  0  0  0  0  0  0  0  0  0  0
    5.2836    1.0445   -2.5340 H   0  0  0  0  0  0  0  0  0  0  0  0
    8.2896    0.9794   -2.3222 H   0  0  0  0  0  0  0  0  0  0  0  0
    6.6533    1.4915   -0.3490 H   0  0  0  0  0  0  0  0  0  0  0  0
    7.9515    0.3249   -0.0413 H   0  0  0  0  0  0  0  0  0  0  0  0
    5.0191   -0.3648   -0.6677 H   0  0  0  0  0  0  0  0  0  0  0  0
    5.8618   -0.5772    0.8747 H   0  0  0  0  0  0  0  0  0  0  0  0
    4.7445   -2.9358   -2.3024 H   0  0  0  0  0  0  0  0  0  0  0  0
    5.6186   -2.4710   -3.7887 H   0  0  0  0  0  0  0  0  0  0  0  0
    4.8788   -1.2274   -2.7683 H   0  0  0  0  0  0  0  0  0  0  0  0
    6.7015   -4.2638   -1.5607 H   0  0  0  0  0  0  0  0  0  0  0  0
    8.2908   -3.4974   -1.3183 H   0  0  0  0  0  0  0  0  0  0  0  0
    7.6852   -3.7888   -2.9771 H   0  0  0  0  0  0  0  0  0  0  0  0
    7.8493   -1.1747   -3.5588 H   0  0  0  0  0  0  0  0  0  0  0  0
    8.7002   -1.2708   -2.0162 H   0  0  0  0  0  0  0  0  0  0  0  0
  1  2  1  0
  1 18  1  0
  1 19  1  0
  1 20  1  0
  2  3  1  0
  2 21  1  0
  2 22  1  0
  3  4  1  0
  4  5  2  0
  4  6  1  0
  6  7  1  0
  6  9  2  0
  7  8  3  0
  9 10  1  0
  9 23  1  0
 10 11  1  0
 10 17  1  0
 10 24  1  1
 11 12  1  0
 11 25  1  0
 11 26  1  0
 12 13  1  0
 12 27  1  0
 12 28  1  0
 13 14  1  0
 14 15  1  6
 14 16  1  0
 14 17  1  0
 15 29  1  0
 15 30  1  0
 15 31  1  0
 16 32  1  0
 16 33  1  0
 16 34  1  0
 17 35  1  0
 17 36  1  0
M  END

