
     RDKit          3D

 43 44  0  0  0  0  0  0  0  0999 V2000
    5.8267   -3.1025    0.1735 C   0  0  0  0  0  0  0  0  0  0  0  0
    5.3821   -3.2830   -1.2855 C   0  0  0  0  0  0  0  0  0  0  0  0
    4.3931   -2.2457   -1.7343 C   0  0  0  0  0  0  0  0  0  0  0  0
    4.7860   -1.2448   -2.4879 N   0  0  0  0  0  0  0  0  0  0  0  0
    3.6631   -0.4618   -2.6984 O   0  0  0  0  0  0  0  0  0  0  0  0
    2.6051   -1.0062   -2.0683 C   0  0  0  0  0  0  0  0  0  0  0  0
    1.3082   -0.2846   -2.1834 C   0  0  0  0  0  0  0  0  0  0  0  0
    2.9904   -2.1564   -1.4319 C   0  0  0  0  0  0  0  0  0  0  0  0
    2.1543   -3.0891   -0.6001 C   0  0  0  0  0  0  0  0  0  0  0  0
    2.1558   -2.7360    0.8046 N   0  0  0  0  0  0  0  0  0  0  0  0
    1.6423   -3.5510    1.6599 C   0  0  0  0  0  0  0  0  0  0  0  0
    0.9594   -4.7212    1.3336 N   0  0  0  0  0  0  0  0  0  0  0  0
    1.7331   -3.2919    3.0243 N   0  0  0  0  0  0  0  0  0  0  0  0
    2.4748   -2.1082    3.4565 C   0  0  0  0  0  0  0  0  0  0  0  0
    1.5505   -0.9039    3.6664 C   0  0  0  0  0  0  0  0  0  0  0  0
    0.4112   -1.2519    4.6324 C   0  0  0  0  0  0  0  0  0  0  0  0
   -0.3380   -2.5230    4.1987 C   0  0  2  0  0  0  0  0  0  0  0  0
   -1.4121   -2.9389    5.2053 C   0  0  0  0  0  0  0  0  0  0  0  0
    0.6673   -3.6675    3.9510 C   0  0  0  0  0  0  0  0  0  0  0  0
    6.5339   -3.8945    0.4682 H   0  0  0  0  0  0  0  0  0  0  0  0
    4.9648   -3.1326    0.8576 H   0  0  0  0  0  0  0  0  0  0  0  0
    6.3272   -2.1308    0.3083 H   0  0  0  0  0  0  0  0  0  0  0  0
    4.9369   -4.2846   -1.4170 H   0  0  0  0  0  0  0  0  0  0  0  0
    6.2534   -3.2306   -1.9565 H   0  0  0  0  0  0  0  0  0  0  0  0
    1.3841    0.7254   -1.7485 H   0  0  0  0  0  0  0  0  0  0  0  0
    0.5168   -0.8279   -1.6499 H   0  0  0  0  0  0  0  0  0  0  0  0
    1.0110   -0.1677   -3.2383 H   0  0  0  0  0  0  0  0  0  0  0  0
    2.5253   -4.1247   -0.7736 H   0  0  0  0  0  0  0  0  0  0  0  0
    1.1217   -3.0791   -1.0089 H   0  0  0  0  0  0  0  0  0  0  0  0
    1.0301   -5.0043    0.3641 H   0  0  0  0  0  0  0  0  0  0  0  0
    1.0676   -5.4995    1.9754 H   0  0  0  0  0  0  0  0  0  0  0  0
    3.2374   -1.8870    2.7016 H   0  0  0  0  0  0  0  0  0  0  0  0
    2.9815   -2.3593    4.4074 H   0  0  0  0  0  0  0  0  0  0  0  0
    1.1432   -0.6058    2.6857 H   0  0  0  0  0  0  0  0  0  0  0  0
    2.1333   -0.0484    4.0478 H   0  0  0  0  0  0  0  0  0  0  0  0
   -0.2965   -0.4098    4.7213 H   0  0  0  0  0  0  0  0  0  0  0  0
    0.8265   -1.4147    5.6460 H   0  0  0  0  0  0  0  0  0  0  0  0
   -0.8284   -2.3146    3.2291 H   0  0  0  0  0  0  0  0  0  0  0  0
   -0.9671   -3.1792    6.1864 H   0  0  0  0  0  0  0  0  0  0  0  0
   -1.9670   -3.8284    4.8634 H   0  0  0  0  0  0  0  0  0  0  0  0
   -2.1433   -2.1301    5.3639 H   0  0  0  0  0  0  0  0  0  0  0  0
    0.1310   -4.5492    3.5772 H   0  0  0  0  0  0  0  0  0  0  0  0
    1.1292   -3.9549    4.9151 H   0  0  0  0  0  0  0  0  0  0  0  0
  1  2  1  0
  1 20  1  0
  1 21  1  0
  1 22  1  0
  2  3  1  0
  2 23  1  0
  2 24  1  0
  3  4  2  0
  3  8  1  0
  4  5  1  0
  5  6  1  0
  6  7  1  0
  6  8  2  0
  7 25  1  0
  7 26  1  0
  7 27  1  0
  8  9  1  0
  9 10  1  0
  9 28  1  0
  9 29  1  0
 10 11  2  0
 11 12  1  0
 11 13  1  0
 12 30  1  0
 12 31  1  0
 13 14  1  0
 13 19  1  0
 14 15  1  0
 14 32  1  0
 14 33  1  0
 15 16  1  0
 15 34  1  0
 15 35  1  0
 16 17  1  0
 16 36  1  0
 16 37  1  0
 17 18  1  0
 17 19  1  0
 17 38  1  6
 18 39  1  0
 18 40  1  0
 18 41  1  0
 19 42  1  0
 19 43  1  0
M  END

