
     RDKit          3D

 24 24  0  0  0  0  0  0  0  0999 V2000
    0.9915   -2.0185    1.1071 O   0  0  0  0  0  0  0  0  0  0  0  0
    2.3912   -2.1960    1.2780 C   0  0  0  0  0  0  0  0  0  0  0  0
    3.0023   -0.8090    1.1527 C   0  0  1  0  0  0  0  0  0  0  0  0
    2.7974   -0.4392    0.1273 H   0  0  0  0  0  0  0  0  0  0  0  0
    2.4068    0.0659    2.0980 O   0  0  0  0  0  0  0  0  0  0  0  0
    4.5267   -0.7266    1.3599 C   0  0  1  0  0  0  0  0  0  0  0  0
    4.9025    0.6356    1.3266 O   0  0  0  0  0  0  0  0  0  0  0  0
    5.0341   -1.4408    2.6081 C   0  0  0  0  0  0  0  0  0  0  0  0
    5.8297   -2.5892    2.4926 C   0  0  0  0  0  0  0  0  0  0  0  0
    6.3147   -3.2579    3.6214 C   0  0  0  0  0  0  0  0  0  0  0  0
    5.9985   -2.7571    4.8802 C   0  0  0  0  0  0  0  0  0  0  0  0
    6.4601   -3.3858    5.9726 F   0  0  0  0  0  0  0  0  0  0  0  0
    5.2154   -1.6135    5.0335 C   0  0  0  0  0  0  0  0  0  0  0  0
    4.7387   -0.9609    3.8962 C   0  0  0  0  0  0  0  0  0  0  0  0
    0.5343   -2.8167    1.3970 H   0  0  0  0  0  0  0  0  0  0  0  0
    2.8176   -2.8700    0.5088 H   0  0  0  0  0  0  0  0  0  0  0  0
    2.6241   -2.6162    2.2728 H   0  0  0  0  0  0  0  0  0  0  0  0
    1.4519   -0.0947    2.0488 H   0  0  0  0  0  0  0  0  0  0  0  0
    4.9998   -1.2088    0.4873 H   0  0  0  0  0  0  0  0  0  0  0  0
    4.1977    1.1224    1.7809 H   0  0  0  0  0  0  0  0  0  0  0  0
    6.0869   -2.9697    1.4996 H   0  0  0  0  0  0  0  0  0  0  0  0
    6.9391   -4.1496    3.5380 H   0  0  0  0  0  0  0  0  0  0  0  0
    4.9921   -1.2496    6.0386 H   0  0  0  0  0  0  0  0  0  0  0  0
    4.1177   -0.0713    4.0087 H   0  0  0  0  0  0  0  0  0  0  0  0
  1  2  1  0
  1 15  1  0
  2  3  1  0
  2 16  1  0
  2 17  1  0
  3  4  1  6
  3  5  1  0
  3  6  1  0
  5 18  1  0
  6  7  1  0
  6  8  1  0
  6 19  1  6
  7 20  1  0
  8  9  2  0
  8 14  1  0
  9 10  1  0
  9 21  1  0
 10 11  2  0
 10 22  1  0
 11 12  1  0
 11 13  1  0
 13 14  2  0
 13 23  1  0
 14 24  1  0
M  END

