
     RDKit          3D

 36 38  0  0  0  0  0  0  0  0999 V2000
    1.2015    0.4658   -0.2340 C   0  0  0  0  0  0  0  0  0  0  0  0
    2.6734    0.1538   -0.1590 C   0  0  0  0  0  0  0  0  0  0  0  0
    3.6412    1.1555   -0.0836 C   0  0  0  0  0  0  0  0  0  0  0  0
    5.0211    0.8625   -0.0146 C   0  0  0  0  0  0  0  0  0  0  0  0
    5.4847   -0.4487   -0.0172 C   0  0  0  0  0  0  0  0  0  0  0  0
    4.5211   -1.4670   -0.0865 C   0  0  0  0  0  0  0  0  0  0  0  0
    3.1264   -1.1881   -0.1620 C   0  0  0  0  0  0  0  0  0  0  0  0
    2.4535   -2.4582   -0.2229 C   0  0  0  0  0  0  0  0  0  0  0  0
    3.4261   -3.4270   -0.1803 C   0  0  0  0  0  0  0  0  0  0  0  0
    4.6790   -2.8433   -0.0942 N   0  0  0  0  0  0  0  0  0  0  0  0
    5.9374   -3.5539   -0.0498 C   0  0  0  0  0  0  0  0  0  0  0  0
    6.6900   -3.6474   -1.3703 C   0  0  0  0  0  0  0  0  0  0  0  0
    6.0907   -3.3270   -2.5941 C   0  0  0  0  0  0  0  0  0  0  0  0
    6.8040   -3.4579   -3.7888 C   0  0  0  0  0  0  0  0  0  0  0  0
    8.1293   -3.9156   -3.7872 C   0  0  0  0  0  0  0  0  0  0  0  0
    8.9676   -4.0704   -5.0305 C   0  0  0  0  0  0  0  0  0  0  0  0
    8.2902   -4.0914   -6.2204 N   0  0  0  0  0  0  0  0  0  0  0  0
   10.1826   -4.1616   -4.9769 O   0  0  0  0  0  0  0  0  0  0  0  0
    8.7352   -4.2174   -2.5574 C   0  0  0  0  0  0  0  0  0  0  0  0
    8.0236   -4.0888   -1.3679 C   0  0  0  0  0  0  0  0  0  0  0  0
    1.0177    1.5502   -0.2239 H   0  0  0  0  0  0  0  0  0  0  0  0
    0.6529    0.0218    0.6146 H   0  0  0  0  0  0  0  0  0  0  0  0
    0.7495    0.0546   -1.1531 H   0  0  0  0  0  0  0  0  0  0  0  0
    3.3226    2.2017   -0.0800 H   0  0  0  0  0  0  0  0  0  0  0  0
    5.7384    1.6855    0.0379 H   0  0  0  0  0  0  0  0  0  0  0  0
    6.5533   -0.6687    0.0235 H   0  0  0  0  0  0  0  0  0  0  0  0
    1.3819   -2.6354   -0.2814 H   0  0  0  0  0  0  0  0  0  0  0  0
    3.3323   -4.5119   -0.1977 H   0  0  0  0  0  0  0  0  0  0  0  0
    5.7314   -4.5721    0.3211 H   0  0  0  0  0  0  0  0  0  0  0  0
    6.5869   -3.0839    0.7079 H   0  0  0  0  0  0  0  0  0  0  0  0
    5.0631   -2.9588   -2.6146 H   0  0  0  0  0  0  0  0  0  0  0  0
    6.3182   -3.1657   -4.7231 H   0  0  0  0  0  0  0  0  0  0  0  0
    7.2950   -4.2618   -6.2652 H   0  0  0  0  0  0  0  0  0  0  0  0
    8.8399   -4.2697   -7.0529 H   0  0  0  0  0  0  0  0  0  0  0  0
    9.7759   -4.5470   -2.5637 H   0  0  0  0  0  0  0  0  0  0  0  0
    8.5124   -4.3303   -0.4188 H   0  0  0  0  0  0  0  0  0  0  0  0
  1  2  1  0
  1 21  1  0
  1 22  1  0
  1 23  1  0
  2  3  2  0
  2  7  1  0
  3  4  1  0
  3 24  1  0
  4  5  2  0
  4 25  1  0
  5  6  1  0
  5 26  1  0
  6  7  2  0
  6 10  1  0
  7  8  1  0
  8  9  2  0
  8 27  1  0
  9 10  1  0
  9 28  1  0
 10 11  1  0
 11 12  1  0
 11 29  1  0
 11 30  1  0
 12 13  2  0
 12 20  1  0
 13 14  1  0
 13 31  1  0
 14 15  2  0
 14 32  1  0
 15 16  1  0
 15 19  1  0
 16 17  1  0
 16 18  2  0
 17 33  1  0
 17 34  1  0
 19 20  2  0
 19 35  1  0
 20 36  1  0
M  END

