
     RDKit          3D

 37 38  0  0  0  0  0  0  0  0999 V2000
    1.1780   -0.8388   -0.0226 C   0  0  0  0  0  0  0  0  0  0  0  0
    1.9927    0.2182    0.7389 C   0  0  0  0  0  0  0  0  0  0  0  0
    3.2962   -0.2836    1.2639 C   0  0  0  0  0  0  0  0  0  0  0  0
    4.6055    0.0312    0.9965 C   0  0  0  0  0  0  0  0  0  0  0  0
    5.4106   -0.8180    1.8162 C   0  0  0  0  0  0  0  0  0  0  0  0
    4.5400   -1.5969    2.5305 C   0  0  0  0  0  0  0  0  0  0  0  0
    4.7924   -2.6519    3.5326 C   0  0  0  0  0  0  0  0  0  0  0  0
    5.9319   -2.9737    3.8459 O   0  0  0  0  0  0  0  0  0  0  0  0
    3.6710   -3.2195    4.0738 N   0  0  0  0  0  0  0  0  0  0  0  0
    3.7474   -4.2901    5.0526 C   0  0  0  0  0  0  0  0  0  0  0  0
    3.5995   -5.6799    4.4572 C   0  0  0  0  0  0  0  0  0  0  0  0
    4.5957   -6.1866    3.6030 C   0  0  0  0  0  0  0  0  0  0  0  0
    4.4678   -7.4528    3.0345 C   0  0  0  0  0  0  0  0  0  0  0  0
    3.3377   -8.2218    3.3324 C   0  0  0  0  0  0  0  0  0  0  0  0
    3.1675   -9.8545    2.6084 S   0  0  1  0  0  0  0  0  0  0  0  0
    3.9550  -10.8644    3.7130 N   0  0  0  0  0  0  0  0  0  0  0  0
    1.7462  -10.2099    2.6442 O   0  0  0  0  0  0  0  0  0  0  0  0
    3.9546   -9.8770    1.3731 O   0  0  0  0  0  0  0  0  0  0  0  0
    2.3322   -7.7402    4.1708 C   0  0  0  0  0  0  0  0  0  0  0  0
    2.4727   -6.4672    4.7303 C   0  0  0  0  0  0  0  0  0  0  0  0
    3.2516   -1.2747    2.1973 O   0  0  0  0  0  0  0  0  0  0  0  0
    0.2221   -0.4172   -0.3701 H   0  0  0  0  0  0  0  0  0  0  0  0
    0.9528   -1.7033    0.6206 H   0  0  0  0  0  0  0  0  0  0  0  0
    1.7296   -1.2082   -0.9013 H   0  0  0  0  0  0  0  0  0  0  0  0
    1.3925    0.6071    1.5815 H   0  0  0  0  0  0  0  0  0  0  0  0
    2.2061    1.0789    0.0862 H   0  0  0  0  0  0  0  0  0  0  0  0
    4.9476    0.7870    0.2925 H   0  0  0  0  0  0  0  0  0  0  0  0
    6.4945   -0.8641    1.8850 H   0  0  0  0  0  0  0  0  0  0  0  0
    2.7689   -2.9573    3.6937 H   0  0  0  0  0  0  0  0  0  0  0  0
    2.9761   -4.1291    5.8223 H   0  0  0  0  0  0  0  0  0  0  0  0
    4.7322   -4.1986    5.5339 H   0  0  0  0  0  0  0  0  0  0  0  0
    5.4748   -5.5737    3.3879 H   0  0  0  0  0  0  0  0  0  0  0  0
    5.2281   -7.8454    2.3570 H   0  0  0  0  0  0  0  0  0  0  0  0
    3.2948  -11.5416    4.0946 H   0  0  0  0  0  0  0  0  0  0  0  0
    4.7498  -11.3178    3.2626 H   0  0  0  0  0  0  0  0  0  0  0  0
    1.4490   -8.3509    4.3655 H   0  0  0  0  0  0  0  0  0  0  0  0
    1.6883   -6.0812    5.3879 H   0  0  0  0  0  0  0  0  0  0  0  0
  1  2  1  0
  1 22  1  0
  1 23  1  0
  1 24  1  0
  2  3  1  0
  2 25  1  0
  2 26  1  0
  3  4  2  0
  3 21  1  0
  4  5  1  0
  4 27  1  0
  5  6  2  0
  5 28  1  0
  6  7  1  0
  6 21  1  0
  7  8  2  0
  7  9  1  0
  9 10  1  0
  9 29  1  0
 10 11  1  0
 10 30  1  0
 10 31  1  0
 11 12  2  0
 11 20  1  0
 12 13  1  0
 12 32  1  0
 13 14  2  0
 13 33  1  0
 14 15  1  0
 14 19  1  0
 15 16  1  1
 15 17  2  0
 15 18  2  0
 16 34  1  0
 16 35  1  0
 19 20  2  0
 19 36  1  0
 20 37  1  0
M  END

