
     RDKit          3D

 49 52  0  0  0  0  0  0  0  0999 V2000
    1.6878    0.0172    1.0009 C   0  0  0  0  0  0  0  0  0  0  0  0
    3.1343    0.0746   -0.0822 S   0  0  1  0  0  0  0  0  0  0  0  0
    2.7619    0.8732   -1.2582 O   0  0  0  0  0  0  0  0  0  0  0  0
    4.2873    0.4327    0.7550 O   0  0  0  0  0  0  0  0  0  0  0  0
    3.3555   -1.6309   -0.6240 C   0  0  0  0  0  0  0  0  0  0  0  0
    2.7534   -2.0567   -1.8099 C   0  0  0  0  0  0  0  0  0  0  0  0
    2.9407   -3.3721   -2.2334 C   0  0  0  0  0  0  0  0  0  0  0  0
    3.7345   -4.2700   -1.4892 C   0  0  0  0  0  0  0  0  0  0  0  0
    3.9573   -5.6466   -1.9619 C   0  0  0  0  0  0  0  0  0  0  0  0
    4.2914   -5.9208   -3.6710 S   0  0  0  0  0  0  0  0  0  0  0  0
    4.5474   -7.6276   -3.3116 C   0  0  0  0  0  0  0  0  0  0  0  0
    4.8762   -8.4783   -4.3366 N   0  0  0  0  0  0  0  0  0  0  0  0
    5.0660   -9.8639   -4.3267 C   0  0  0  0  0  0  0  0  0  0  0  0
    5.4461  -10.4742   -5.5417 C   0  0  0  0  0  0  0  0  0  0  0  0
    5.6474  -11.8445   -5.6132 C   0  0  0  0  0  0  0  0  0  0  0  0
    5.4608  -12.6585   -4.4828 C   0  0  0  0  0  0  0  0  0  0  0  0
    5.7062  -14.1300   -4.6322 C   0  0  0  0  0  0  0  0  0  0  0  0
    6.2897  -14.6088   -5.5699 O   0  0  0  0  0  0  0  0  0  0  0  0
    5.2288  -14.9295   -3.6490 O   0  0  0  0  0  0  0  0  0  0  0  0
    5.0967  -12.0429   -3.2755 C   0  0  0  0  0  0  0  0  0  0  0  0
    4.8981  -10.6659   -3.1826 C   0  0  0  0  0  0  0  0  0  0  0  0
    4.3878   -7.9425   -2.0603 N   0  0  0  0  0  0  0  0  0  0  0  0
    4.0402   -6.8545   -1.2877 C   0  0  0  0  0  0  0  0  0  0  0  0
    3.7688   -7.0937    0.1498 C   0  0  0  0  0  0  0  0  0  0  0  0
    4.5459   -8.0313    0.8561 C   0  0  0  0  0  0  0  0  0  0  0  0
    4.3052   -8.2967    2.2040 C   0  0  0  0  0  0  0  0  0  0  0  0
    3.2676   -7.6257    2.8484 C   0  0  0  0  0  0  0  0  0  0  0  0
    3.0282   -7.8777    4.1419 F   0  0  0  0  0  0  0  0  0  0  0  0
    2.4667   -6.7051    2.1751 C   0  0  0  0  0  0  0  0  0  0  0  0
    2.7203   -6.4458    0.8281 C   0  0  0  0  0  0  0  0  0  0  0  0
    4.3541   -3.8013   -0.3108 C   0  0  0  0  0  0  0  0  0  0  0  0
    4.1670   -2.4908    0.1227 C   0  0  0  0  0  0  0  0  0  0  0  0
    1.5449    1.0540    1.3373 H   0  0  0  0  0  0  0  0  0  0  0  0
    1.8981   -0.6398    1.8546 H   0  0  0  0  0  0  0  0  0  0  0  0
    0.8174   -0.3260    0.4273 H   0  0  0  0  0  0  0  0  0  0  0  0
    2.1565   -1.3550   -2.3959 H   0  0  0  0  0  0  0  0  0  0  0  0
    2.4611   -3.7122   -3.1544 H   0  0  0  0  0  0  0  0  0  0  0  0
    5.0051   -8.0390   -5.2403 H   0  0  0  0  0  0  0  0  0  0  0  0
    5.5874   -9.8584   -6.4350 H   0  0  0  0  0  0  0  0  0  0  0  0
    5.9535  -12.3172   -6.5483 H   0  0  0  0  0  0  0  0  0  0  0  0
    4.6695  -14.4251   -3.0426 H   0  0  0  0  0  0  0  0  0  0  0  0
    4.9859  -12.6303   -2.3586 H   0  0  0  0  0  0  0  0  0  0  0  0
    4.6221  -10.2007   -2.2395 H   0  0  0  0  0  0  0  0  0  0  0  0
    5.3503   -8.5532    0.3350 H   0  0  0  0  0  0  0  0  0  0  0  0
    4.9074   -9.0157    2.7627 H   0  0  0  0  0  0  0  0  0  0  0  0
    1.6499   -6.2147    2.7081 H   0  0  0  0  0  0  0  0  0  0  0  0
    2.0807   -5.7428    0.2920 H   0  0  0  0  0  0  0  0  0  0  0  0
    5.0060   -4.4683    0.2552 H   0  0  0  0  0  0  0  0  0  0  0  0
    4.6701   -2.1182    1.0173 H   0  0  0  0  0  0  0  0  0  0  0  0
  2  1  1  1
  1 33  1  0
  1 34  1  0
  1 35  1  0
  2  3  2  0
  2  4  2  0
  2  5  1  0
  5  6  2  0
  5 32  1  0
  6  7  1  0
  6 36  1  0
  7  8  2  0
  7 37  1  0
  8  9  1  0
  8 31  1  0
  9 10  1  0
  9 23  2  0
 10 11  1  0
 11 12  1  0
 11 22  2  0
 12 13  1  0
 12 38  1  0
 13 14  2  0
 13 21  1  0
 14 15  1  0
 14 39  1  0
 15 16  2  0
 15 40  1  0
 16 17  1  0
 16 20  1  0
 17 18  2  0
 17 19  1  0
 19 41  1  0
 20 21  2  0
 20 42  1  0
 21 43  1  0
 22 23  1  0
 23 24  1  0
 24 25  2  0
 24 30  1  0
 25 26  1  0
 25 44  1  0
 26 27  2  0
 26 45  1  0
 27 28  1  0
 27 29  1  0
 29 30  2  0
 29 46  1  0
 30 47  1  0
 31 32  2  0
 31 48  1  0
 32 49  1  0
M  END

