
     RDKit          3D

 23 23  0  0  0  0  0  0  0  0999 V2000
    1.9469    1.6101    1.0823 C   0  0  0  0  0  0  0  0  0  0  0  0
    2.8081    0.3851    0.0485 S   0  0  0  0  0  0  0  0  0  0  0  0
    3.3366    1.4493   -1.2579 C   0  0  0  0  0  0  0  0  0  0  0  0
    3.0609    2.7329   -1.3736 N   0  0  0  0  0  0  0  0  0  0  0  0
    3.6649    3.1452   -2.5351 C   0  0  0  0  0  0  0  0  0  0  0  0
    3.5825    4.5623   -3.0025 C   0  0  0  0  0  0  0  0  0  0  0  0
    4.3169    2.0785   -3.1358 C   0  0  0  0  0  0  0  0  0  0  0  0
    5.3098    2.0127   -4.5771 S   0  0  0  0  0  0  0  0  0  0  0  0
    4.1179    1.4576   -5.8618 C   0  0  0  0  0  0  0  0  0  0  0  0
    4.0992    0.9791   -2.2841 N   0  0  0  0  0  0  0  0  0  0  0  0
    4.5888   -0.3739   -2.4470 C   0  0  0  0  0  0  0  0  0  0  0  0
    1.5429    1.0507    1.9372 H   0  0  0  0  0  0  0  0  0  0  0  0
    1.1351    2.0837    0.5155 H   0  0  0  0  0  0  0  0  0  0  0  0
    2.6463    2.3827    1.4273 H   0  0  0  0  0  0  0  0  0  0  0  0
    3.9780    5.2484   -2.2356 H   0  0  0  0  0  0  0  0  0  0  0  0
    2.5354    4.8556   -3.1852 H   0  0  0  0  0  0  0  0  0  0  0  0
    4.1567    4.7028   -3.9290 H   0  0  0  0  0  0  0  0  0  0  0  0
    4.6774    1.4251   -6.8085 H   0  0  0  0  0  0  0  0  0  0  0  0
    3.2876    2.1716   -5.9534 H   0  0  0  0  0  0  0  0  0  0  0  0
    3.7271    0.4539   -5.6410 H   0  0  0  0  0  0  0  0  0  0  0  0
    5.3274   -0.3781   -3.2598 H   0  0  0  0  0  0  0  0  0  0  0  0
    3.7711   -1.0706   -2.6961 H   0  0  0  0  0  0  0  0  0  0  0  0
    5.0726   -0.7192   -1.5199 H   0  0  0  0  0  0  0  0  0  0  0  0
  1  2  1  0
  1 12  1  0
  1 13  1  0
  1 14  1  0
  2  3  1  0
  3  4  2  0
  3 10  1  0
  4  5  1  0
  5  6  1  0
  5  7  2  0
  6 15  1  0
  6 16  1  0
  6 17  1  0
  7  8  1  0
  7 10  1  0
  8  9  1  0
  9 18  1  0
  9 19  1  0
  9 20  1  0
 10 11  1  0
 11 21  1  0
 11 22  1  0
 11 23  1  0
M  END

