
     RDKit          3D

 46 47  0  0  0  0  0  0  0  0999 V2000
    2.3123   -2.2306   -0.1396 O   0  0  0  0  0  0  0  0  0  0  0  0
    3.2692   -1.5286   -0.3129 C   0  0  0  0  0  0  0  0  0  0  0  0
    3.6708   -1.2195   -1.5707 O   0  0  0  0  0  0  0  0  0  0  0  0
    4.1250   -0.9568    0.8120 C   0  0  0  0  0  0  0  0  0  0  0  0
    4.5561    0.5038    0.6251 C   0  0  0  0  0  0  0  0  0  0  0  0
    5.2485    1.1366    1.8490 C   0  0  1  0  0  0  0  0  0  0  0  0
    6.5029    0.3874    2.3409 C   0  0  0  0  0  0  0  0  0  0  0  0
    7.6820    0.5569    1.3763 C   0  0  0  0  0  0  0  0  0  0  0  0
    7.9265    2.0350    1.0667 C   0  0  0  0  0  0  0  0  0  0  0  0
    6.7119    2.6866    0.5797 N   0  0  0  0  0  0  0  0  0  0  0  0
    6.9419    4.0318    0.0751 C   0  0  0  0  0  0  0  0  0  0  0  0
    7.4443    4.0211   -1.3663 C   0  0  0  0  0  0  0  0  0  0  0  0
    7.6493    5.3722   -1.7428 O   0  0  0  0  0  0  0  0  0  0  0  0
    8.0848    5.6855   -2.9817 C   0  0  0  0  0  0  0  0  0  0  0  0
    8.3540    4.7411   -3.9833 C   0  0  0  0  0  0  0  0  0  0  0  0
    8.8018    5.1616   -5.2399 C   0  0  0  0  0  0  0  0  0  0  0  0
    8.9862    6.5159   -5.5158 C   0  0  0  0  0  0  0  0  0  0  0  0
    8.7180    7.4584   -4.5185 C   0  0  0  0  0  0  0  0  0  0  0  0
    8.2707    7.0608   -3.2575 C   0  0  0  0  0  0  0  0  0  0  0  0
    7.9843    8.0866   -2.1865 C   0  0  1  0  0  0  0  0  0  0  0  0
    6.7029    8.0507   -1.7793 F   0  0  0  0  0  0  0  0  0  0  0  0
    8.7516    7.9090   -1.0961 F   0  0  0  0  0  0  0  0  0  0  0  0
    8.2184    9.3377   -2.6289 F   0  0  0  0  0  0  0  0  0  0  0  0
    5.6288    2.5990    1.5569 C   0  0  0  0  0  0  0  0  0  0  0  0
    4.4394   -0.6318   -1.5423 H   0  0  0  0  0  0  0  0  0  0  0  0
    5.0091   -1.6128    0.9052 H   0  0  0  0  0  0  0  0  0  0  0  0
    3.5424   -1.0841    1.7361 H   0  0  0  0  0  0  0  0  0  0  0  0
    3.6662    1.1125    0.3882 H   0  0  0  0  0  0  0  0  0  0  0  0
    5.2312    0.6102   -0.2434 H   0  0  0  0  0  0  0  0  0  0  0  0
    4.5124    1.1482    2.6726 H   0  0  0  0  0  0  0  0  0  0  0  0
    6.2899   -0.6792    2.5167 H   0  0  0  0  0  0  0  0  0  0  0  0
    6.7857    0.8049    3.3235 H   0  0  0  0  0  0  0  0  0  0  0  0
    7.4906    0.0170    0.4329 H   0  0  0  0  0  0  0  0  0  0  0  0
    8.5962    0.1176    1.8084 H   0  0  0  0  0  0  0  0  0  0  0  0
    8.7198    2.1323    0.3091 H   0  0  0  0  0  0  0  0  0  0  0  0
    8.3042    2.5454    1.9849 H   0  0  0  0  0  0  0  0  0  0  0  0
    7.6571    4.6086    0.7000 H   0  0  0  0  0  0  0  0  0  0  0  0
    5.9951    4.5930    0.0921 H   0  0  0  0  0  0  0  0  0  0  0  0
    6.6945    3.5399   -2.0195 H   0  0  0  0  0  0  0  0  0  0  0  0
    8.3882    3.4541   -1.4600 H   0  0  0  0  0  0  0  0  0  0  0  0
    8.2148    3.6779   -3.7898 H   0  0  0  0  0  0  0  0  0  0  0  0
    9.0064    4.4123   -6.0091 H   0  0  0  0  0  0  0  0  0  0  0  0
    9.3354    6.8411   -6.4977 H   0  0  0  0  0  0  0  0  0  0  0  0
    8.8563    8.5222   -4.7158 H   0  0  0  0  0  0  0  0  0  0  0  0
    4.7551    3.1399    1.1594 H   0  0  0  0  0  0  0  0  0  0  0  0
    5.9060    3.0975    2.5150 H   0  0  0  0  0  0  0  0  0  0  0  0
  1  2  2  0
  2  3  1  0
  2  4  1  0
  3 25  1  0
  4  5  1  0
  4 26  1  0
  4 27  1  0
  5  6  1  0
  5 28  1  0
  5 29  1  0
  6  7  1  0
  6 24  1  0
  6 30  1  1
  7  8  1  0
  7 31  1  0
  7 32  1  0
  8  9  1  0
  8 33  1  0
  8 34  1  0
  9 10  1  0
  9 35  1  0
  9 36  1  0
 10 11  1  0
 10 24  1  0
 11 12  1  0
 11 37  1  0
 11 38  1  0
 12 13  1  0
 12 39  1  0
 12 40  1  0
 13 14  1  0
 14 15  2  0
 14 19  1  0
 15 16  1  0
 15 41  1  0
 16 17  2  0
 16 42  1  0
 17 18  1  0
 17 43  1  0
 18 19  2  0
 18 44  1  0
 19 20  1  0
 20 21  1  1
 20 22  1  0
 20 23  1  0
 24 45  1  0
 24 46  1  0
M  END

