
     RDKit          3D

 38 39  0  0  0  0  0  0  0  0999 V2000
   -3.5317   -7.4522    0.4370 C   0  0  0  0  0  0  0  0  0  0  0  0
   -2.4437   -6.9250   -0.5006 C   0  0  0  0  0  0  0  0  0  0  0  0
   -1.2641   -6.3546    0.2311 C   0  0  0  0  0  0  0  0  0  0  0  0
   -1.2989   -5.7523    1.4097 N   0  0  0  0  0  0  0  0  0  0  0  0
   -0.0253   -5.3370    1.6712 C   0  0  0  0  0  0  0  0  0  0  0  0
    0.8079   -5.6966    0.6300 C   0  0  0  0  0  0  0  0  0  0  0  0
    2.5404   -5.5055    0.3441 S   0  0  1  0  0  0  0  0  0  0  0  0
    2.7107   -5.7864   -1.0863 O   0  0  0  0  0  0  0  0  0  0  0  0
    2.9587   -4.2645    0.9846 O   0  0  0  0  0  0  0  0  0  0  0  0
    3.3487   -6.7160    1.1587 N   0  0  0  0  0  0  0  0  0  0  0  0
    3.2012   -8.1165    0.7745 C   0  0  0  0  0  0  0  0  0  0  0  0
    4.3429   -8.9573    1.3472 C   0  0  0  0  0  0  0  0  0  0  0  0
    4.2589  -10.4350    0.9595 C   0  0  1  0  0  0  0  0  0  0  0  0
    4.4649  -10.7373   -0.5556 C   0  0  0  0  0  0  0  0  0  0  0  0
    5.4467  -11.9331   -0.5947 C   0  0  0  0  0  0  0  0  0  0  0  0
    5.3841  -12.4726    0.7606 N   0  0  0  0  0  0  0  0  0  0  0  0
    5.3208  -11.3181    1.6422 C   0  0  0  0  0  0  0  0  0  0  0  0
    0.0023   -6.3564   -0.2755 N   0  0  0  0  0  0  0  0  0  0  0  0
    0.3184   -6.6765   -1.1858 H   0  0  0  0  0  0  0  0  0  0  0  0
   -4.4048   -7.7974   -0.1371 H   0  0  0  0  0  0  0  0  0  0  0  0
   -3.8550   -6.6630    1.1306 H   0  0  0  0  0  0  0  0  0  0  0  0
   -3.1619   -8.2935    1.0435 H   0  0  0  0  0  0  0  0  0  0  0  0
   -2.8679   -6.1362   -1.1496 H   0  0  0  0  0  0  0  0  0  0  0  0
   -2.0949   -7.7200   -1.1819 H   0  0  0  0  0  0  0  0  0  0  0  0
    0.2412   -4.7946    2.5772 H   0  0  0  0  0  0  0  0  0  0  0  0
    3.3985   -6.5156    2.1565 H   0  0  0  0  0  0  0  0  0  0  0  0
    3.2226   -8.1493   -0.3248 H   0  0  0  0  0  0  0  0  0  0  0  0
    2.2278   -8.5363    1.1010 H   0  0  0  0  0  0  0  0  0  0  0  0
    4.3336   -8.8714    2.4499 H   0  0  0  0  0  0  0  0  0  0  0  0
    5.3019   -8.5281    1.0093 H   0  0  0  0  0  0  0  0  0  0  0  0
    3.2704  -10.8235    1.2586 H   0  0  0  0  0  0  0  0  0  0  0  0
    4.8832   -9.8696   -1.0901 H   0  0  0  0  0  0  0  0  0  0  0  0
    3.5101  -10.9866   -1.0420 H   0  0  0  0  0  0  0  0  0  0  0  0
    6.4615  -11.5694   -0.8694 H   0  0  0  0  0  0  0  0  0  0  0  0
    5.1639  -12.6959   -1.3384 H   0  0  0  0  0  0  0  0  0  0  0  0
    6.1563  -13.1004    0.9752 H   0  0  0  0  0  0  0  0  0  0  0  0
    6.2818  -10.7551    1.7096 H   0  0  0  0  0  0  0  0  0  0  0  0
    5.0366  -11.6087    2.6672 H   0  0  0  0  0  0  0  0  0  0  0  0
  1  2  1  0
  1 20  1  0
  1 21  1  0
  1 22  1  0
  2  3  1  0
  2 23  1  0
  2 24  1  0
  3  4  2  0
  3 18  1  0
  4  5  1  0
  5  6  2  0
  5 25  1  0
  6  7  1  0
  6 18  1  0
  7  8  2  0
  7  9  2  0
  7 10  1  1
 10 11  1  0
 10 26  1  0
 11 12  1  0
 11 27  1  0
 11 28  1  0
 12 13  1  0
 12 29  1  0
 12 30  1  0
 13 14  1  0
 13 17  1  0
 13 31  1  1
 14 15  1  0
 14 32  1  0
 14 33  1  0
 15 16  1  0
 15 34  1  0
 15 35  1  0
 16 17  1  0
 16 36  1  0
 17 37  1  0
 17 38  1  0
 18 19  1  0
M  END

