
     RDKit          3D

 76 78  0  0  0  0  0  0  0  0999 V2000
   -2.1821    8.6373    8.6782 C   0  0  0  0  0  0  0  0  0  0  0  0
   -1.3101    8.1846    9.8502 C   0  0  0  0  0  0  0  0  0  0  0  0
    0.1496    7.9259    9.4638 C   0  0  0  0  0  0  0  0  0  0  0  0
    1.0290    7.4730   10.6326 C   0  0  0  0  0  0  0  0  0  0  0  0
    2.4882    7.2150   10.2445 C   0  0  0  0  0  0  0  0  0  0  0  0
    3.3601    6.7638   11.4193 C   0  0  0  0  0  0  0  0  0  0  0  0
    4.8053    6.5120   11.0204 C   0  0  0  0  0  0  0  0  0  0  0  0
    5.5219    6.1028   12.1796 O   0  0  0  0  0  0  0  0  0  0  0  0
    6.8360    5.8124   12.1013 C   0  0  0  0  0  0  0  0  0  0  0  0
    7.5988    5.8843   10.9208 C   0  0  0  0  0  0  0  0  0  0  0  0
    8.9538    5.5609   10.9559 C   0  0  0  0  0  0  0  0  0  0  0  0
    9.5757    5.1639   12.1490 C   0  0  0  0  0  0  0  0  0  0  0  0
   11.0214    4.8375   12.1031 C   0  0  0  0  0  0  0  0  0  0  0  0
   11.7127    4.8775   11.1166 O   0  0  0  0  0  0  0  0  0  0  0  0
   11.4941    4.4748   13.3400 O   0  0  0  0  0  0  0  0  0  0  0  0
   12.8166    4.1244   13.5517 C   0  0  0  0  0  0  0  0  0  0  0  0
   13.8952    4.8345   13.0176 C   0  0  0  0  0  0  0  0  0  0  0  0
   15.1947    4.4477   13.3610 C   0  0  0  0  0  0  0  0  0  0  0  0
   15.4459    3.3791   14.2364 C   0  0  0  0  0  0  0  0  0  0  0  0
   16.8558    3.0472   14.6735 C   0  0  0  0  0  0  0  0  0  0  0  0
   17.1745    3.5312   16.0990 C   0  0  2  0  0  0  0  0  0  0  0  0
   16.5649    2.9700   16.8312 H   0  0  0  0  0  0  0  0  0  0  0  0
   16.8199    4.9449   16.2481 N   0  0  0  0  0  0  0  0  0  0  0  0
   16.5651    5.5278   17.4445 C   0  0  0  0  0  0  0  0  0  0  0  0
   16.8925    4.9885   18.5088 O   0  0  0  0  0  0  0  0  0  0  0  0
   15.8673    6.8537   17.4248 C   0  0  0  0  0  0  0  0  0  0  0  0
   16.0066    7.6943   18.5399 C   0  0  0  0  0  0  0  0  0  0  0  0
   15.3644    8.9319   18.5638 C   0  0  0  0  0  0  0  0  0  0  0  0
   14.5642    9.3333   17.4893 C   0  0  0  0  0  0  0  0  0  0  0  0
   14.3983    8.4893   16.3844 C   0  0  0  0  0  0  0  0  0  0  0  0
   13.4848    8.8850   15.2358 C   0  0  1  0  0  0  0  0  0  0  0  0
   12.0509    8.4075   15.3610 C   0  0  0  0  0  0  0  0  0  0  0  0
   13.4836   10.2499   15.1149 F   0  0  0  0  0  0  0  0  0  0  0  0
   14.0046    8.3923   14.0627 F   0  0  0  0  0  0  0  0  0  0  0  0
   15.0529    7.2542   16.3550 C   0  0  0  0  0  0  0  0  0  0  0  0
   18.6569    3.2543   16.4681 C   0  0  0  0  0  0  0  0  0  0  0  0
   19.4240    2.7326   15.7000 O   0  0  0  0  0  0  0  0  0  0  0  0
   18.9999    3.6056   17.7025 O   0  0  0  0  0  0  0  0  0  0  0  0
   14.3415    2.6765   14.7460 C   0  0  0  0  0  0  0  0  0  0  0  0
   13.0389    3.0389   14.4060 C   0  0  0  0  0  0  0  0  0  0  0  0
    8.8041    5.0930   13.3261 C   0  0  0  0  0  0  0  0  0  0  0  0
    7.4546    5.4128   13.3035 C   0  0  0  0  0  0  0  0  0  0  0  0
   -3.2232    8.8136    8.9924 H   0  0  0  0  0  0  0  0  0  0  0  0
   -2.2007    7.8803    7.8761 H   0  0  0  0  0  0  0  0  0  0  0  0
   -1.8050    9.5748    8.2362 H   0  0  0  0  0  0  0  0  0  0  0  0
   -1.7356    7.2660   10.2939 H   0  0  0  0  0  0  0  0  0  0  0  0
   -1.3434    8.9459   10.6508 H   0  0  0  0  0  0  0  0  0  0  0  0
    0.5769    8.8446    9.0197 H   0  0  0  0  0  0  0  0  0  0  0  0
    0.1846    7.1634    8.6632 H   0  0  0  0  0  0  0  0  0  0  0  0
    0.6031    6.5542   11.0766 H   0  0  0  0  0  0  0  0  0  0  0  0
    0.9952    8.2351   11.4329 H   0  0  0  0  0  0  0  0  0  0  0  0
    2.9138    8.1340    9.8003 H   0  0  0  0  0  0  0  0  0  0  0  0
    2.5219    6.4516    9.4450 H   0  0  0  0  0  0  0  0  0  0  0  0
    2.9529    5.8391   11.8630 H   0  0  0  0  0  0  0  0  0  0  0  0
    3.3450    7.5244   12.2189 H   0  0  0  0  0  0  0  0  0  0  0  0
    5.2604    7.4290   10.6010 H   0  0  0  0  0  0  0  0  0  0  0  0
    4.8655    5.7262   10.2441 H   0  0  0  0  0  0  0  0  0  0  0  0
    7.1460    6.1892    9.9777 H   0  0  0  0  0  0  0  0  0  0  0  0
    9.5566    5.6126   10.0470 H   0  0  0  0  0  0  0  0  0  0  0  0
   13.7278    5.6737   12.3451 H   0  0  0  0  0  0  0  0  0  0  0  0
   16.0357    4.9968   12.9258 H   0  0  0  0  0  0  0  0  0  0  0  0
   17.5919    3.4869   13.9831 H   0  0  0  0  0  0  0  0  0  0  0  0
   17.0369    1.9627   14.6492 H   0  0  0  0  0  0  0  0  0  0  0  0
   16.5937    5.4549   15.4026 H   0  0  0  0  0  0  0  0  0  0  0  0
   16.6251    7.3592   19.3743 H   0  0  0  0  0  0  0  0  0  0  0  0
   15.4880    9.5935   19.4245 H   0  0  0  0  0  0  0  0  0  0  0  0
   14.0697   10.3064   17.5035 H   0  0  0  0  0  0  0  0  0  0  0  0
   11.5977    8.8025   16.2809 H   0  0  0  0  0  0  0  0  0  0  0  0
   12.0161    7.3094   15.3876 H   0  0  0  0  0  0  0  0  0  0  0  0
   11.4807    8.7657   14.4912 H   0  0  0  0  0  0  0  0  0  0  0  0
   14.9008    6.6034   15.4919 H   0  0  0  0  0  0  0  0  0  0  0  0
   18.2367    4.0378   18.1740 H   0  0  0  0  0  0  0  0  0  0  0  0
   14.4999    1.8309   15.4216 H   0  0  0  0  0  0  0  0  0  0  0  0
   12.1793    2.4938   14.8010 H   0  0  0  0  0  0  0  0  0  0  0  0
    9.2744    4.7816   14.2594 H   0  0  0  0  0  0  0  0  0  0  0  0
    6.8425    5.3622   14.2060 H   0  0  0  0  0  0  0  0  0  0  0  0
  1  2  1  0
  1 43  1  0
  1 44  1  0
  1 45  1  0
  2  3  1  0
  2 46  1  0
  2 47  1  0
  3  4  1  0
  3 48  1  0
  3 49  1  0
  4  5  1  0
  4 50  1  0
  4 51  1  0
  5  6  1  0
  5 52  1  0
  5 53  1  0
  6  7  1  0
  6 54  1  0
  6 55  1  0
  7  8  1  0
  7 56  1  0
  7 57  1  0
  8  9  1  0
  9 10  2  0
  9 42  1  0
 10 11  1  0
 10 58  1  0
 11 12  2  0
 11 59  1  0
 12 13  1  0
 12 41  1  0
 13 14  2  0
 13 15  1  0
 15 16  1  0
 16 17  2  0
 16 40  1  0
 17 18  1  0
 17 60  1  0
 18 19  2  0
 18 61  1  0
 19 20  1  0
 19 39  1  0
 20 21  1  0
 20 62  1  0
 20 63  1  0
 21 22  1  1
 21 23  1  0
 21 36  1  0
 23 24  1  0
 23 64  1  0
 24 25  2  0
 24 26  1  0
 26 27  2  0
 26 35  1  0
 27 28  1  0
 27 65  1  0
 28 29  2  0
 28 66  1  0
 29 30  1  0
 29 67  1  0
 30 31  1  0
 30 35  2  0
 31 32  1  0
 31 33  1  6
 31 34  1  0
 32 68  1  0
 32 69  1  0
 32 70  1  0
 35 71  1  0
 36 37  2  0
 36 38  1  0
 38 72  1  0
 39 40  2  0
 39 73  1  0
 40 74  1  0
 41 42  2  0
 41 75  1  0
 42 76  1  0
M  END

