
     RDKit          3D

 34 34  0  0  0  0  0  0  0  0999 V2000
    0.9691    0.5562   -0.1858 N   0  0  0  0  0  0  0  0  0  0  0  0
    2.2355   -0.1830   -0.2187 C   0  0  1  0  0  0  0  0  0  0  0  0
    3.0333    0.5421   -0.4615 H   0  0  0  0  0  0  0  0  0  0  0  0
    2.6278   -0.9163    1.0652 C   0  0  0  0  0  0  0  0  0  0  0  0
    2.8884    0.2815    2.4259 S   0  0  0  0  0  0  0  0  0  0  0  0
    3.2530   -0.8872    3.7870 C   0  0  0  0  0  0  0  0  0  0  0  0
    3.5279   -0.1148    5.0727 C   0  0  0  0  0  0  0  0  0  0  0  0
    3.6895   -1.0522    6.2720 C   0  0  0  0  0  0  0  0  0  0  0  0
    3.2197   -2.1749    6.2837 O   0  0  0  0  0  0  0  0  0  0  0  0
    4.3810   -0.4865    7.3193 N   0  0  0  0  0  0  0  0  0  0  0  0
    4.6607   -1.0208    8.5851 C   0  0  0  0  0  0  0  0  0  0  0  0
    4.2644   -2.3096    8.9900 C   0  0  0  0  0  0  0  0  0  0  0  0
    4.5781   -2.7771   10.2669 C   0  0  0  0  0  0  0  0  0  0  0  0
    5.2894   -1.9827   11.1692 C   0  0  0  0  0  0  0  0  0  0  0  0
    5.6919   -0.7017   10.7860 C   0  0  0  0  0  0  0  0  0  0  0  0
    5.3798   -0.2318    9.5116 C   0  0  0  0  0  0  0  0  0  0  0  0
    5.8994    1.3878    9.0541 Cl  0  0  0  0  0  0  0  0  0  0  0  0
    2.2162   -1.1655   -1.4184 C   0  0  0  0  0  0  0  0  0  0  0  0
    2.9871   -2.0822   -1.5326 O   0  0  0  0  0  0  0  0  0  0  0  0
    1.2834   -0.8586   -2.3175 O   0  0  0  0  0  0  0  0  0  0  0  0
    1.0842    1.4896    0.2054 H   0  0  0  0  0  0  0  0  0  0  0  0
    0.2836    0.0775    0.4014 H   0  0  0  0  0  0  0  0  0  0  0  0
    3.5458   -1.4918    0.8779 H   0  0  0  0  0  0  0  0  0  0  0  0
    1.8364   -1.6317    1.3499 H   0  0  0  0  0  0  0  0  0  0  0  0
    4.1240   -1.5037    3.5136 H   0  0  0  0  0  0  0  0  0  0  0  0
    2.4008   -1.5656    3.9395 H   0  0  0  0  0  0  0  0  0  0  0  0
    2.6799    0.5602    5.2920 H   0  0  0  0  0  0  0  0  0  0  0  0
    4.4167    0.5285    4.9610 H   0  0  0  0  0  0  0  0  0  0  0  0
    4.7331    0.4554    7.1790 H   0  0  0  0  0  0  0  0  0  0  0  0
    3.7122   -2.9248    8.2835 H   0  0  0  0  0  0  0  0  0  0  0  0
    4.2586   -3.7813   10.5554 H   0  0  0  0  0  0  0  0  0  0  0  0
    5.5334   -2.3526   12.1675 H   0  0  0  0  0  0  0  0  0  0  0  0
    6.2490   -0.0568   11.4674 H   0  0  0  0  0  0  0  0  0  0  0  0
    0.7937   -0.0976   -1.9154 H   0  0  0  0  0  0  0  0  0  0  0  0
  1  2  1  0
  1 21  1  0
  1 22  1  0
  2  3  1  6
  2  4  1  0
  2 18  1  0
  4  5  1  0
  4 23  1  0
  4 24  1  0
  5  6  1  0
  6  7  1  0
  6 25  1  0
  6 26  1  0
  7  8  1  0
  7 27  1  0
  7 28  1  0
  8  9  2  0
  8 10  1  0
 10 11  1  0
 10 29  1  0
 11 12  2  0
 11 16  1  0
 12 13  1  0
 12 30  1  0
 13 14  2  0
 13 31  1  0
 14 15  1  0
 14 32  1  0
 15 16  2  0
 15 33  1  0
 16 17  1  0
 18 19  2  0
 18 20  1  0
 20 34  1  0
M  END

