
     RDKit          3D

 48 48  0  0  0  0  0  0  0  0999 V2000
    2.8473   -0.7284    0.7571 C   0  0  0  0  0  0  0  0  0  0  0  0
    3.6649   -0.4296   -0.3416 O   0  0  0  0  0  0  0  0  0  0  0  0
    3.8258    0.9461   -0.5753 C   0  0  0  0  0  0  0  0  0  0  0  0
    4.7265    1.1339   -1.7880 C   0  0  0  0  0  0  0  0  0  0  0  0
    4.9413    2.6048   -2.1371 C   0  0  0  0  0  0  0  0  0  0  0  0
    5.8211    2.7299   -3.3021 N   0  0  0  0  0  0  0  0  0  0  0  0
    6.5010    4.2274   -3.6775 S   0  0  1  0  0  0  0  0  0  0  0  0
    6.3068    4.4409   -5.1146 O   0  0  0  0  0  0  0  0  0  0  0  0
    6.0451    5.2120   -2.6869 O   0  0  0  0  0  0  0  0  0  0  0  0
    8.2665    3.9622   -3.3921 C   0  0  0  0  0  0  0  0  0  0  0  0
    9.0634    5.2235   -3.7589 C   0  0  0  0  0  0  0  0  0  0  0  0
   10.4686    5.1209   -3.4202 N   0  0  0  0  0  0  0  0  0  0  0  0
   11.3227    4.3325   -4.1545 C   0  0  0  0  0  0  0  0  0  0  0  0
   10.9230    3.6839   -5.1116 O   0  0  0  0  0  0  0  0  0  0  0  0
   12.7558    4.3119   -3.7127 C   0  0  0  0  0  0  0  0  0  0  0  0
   13.5494    3.2440   -4.1301 C   0  0  0  0  0  0  0  0  0  0  0  0
   14.8935    3.1651   -3.7488 C   0  0  0  0  0  0  0  0  0  0  0  0
   15.4697    4.1620   -2.9563 C   0  0  0  0  0  0  0  0  0  0  0  0
   16.7539    4.1778   -2.5404 O   0  0  0  0  0  0  0  0  0  0  0  0
   17.6145    3.1283   -2.9230 C   0  0  0  0  0  0  0  0  0  0  0  0
   14.6738    5.2699   -2.5430 C   0  0  0  0  0  0  0  0  0  0  0  0
   15.3141    6.2051   -1.8018 O   0  0  0  0  0  0  0  0  0  0  0  0
   14.6032    7.3388   -1.3656 C   0  0  0  0  0  0  0  0  0  0  0  0
   13.3345    5.3302   -2.9238 C   0  0  0  0  0  0  0  0  0  0  0  0
    2.7892   -1.8231    0.8464 H   0  0  0  0  0  0  0  0  0  0  0  0
    1.8191   -0.3302    0.6325 H   0  0  0  0  0  0  0  0  0  0  0  0
    3.2552   -0.3191    1.7044 H   0  0  0  0  0  0  0  0  0  0  0  0
    4.2702    1.4457    0.3136 H   0  0  0  0  0  0  0  0  0  0  0  0
    2.8403    1.4317   -0.7473 H   0  0  0  0  0  0  0  0  0  0  0  0
    4.2712    0.6017   -2.6416 H   0  0  0  0  0  0  0  0  0  0  0  0
    5.6982    0.6503   -1.5975 H   0  0  0  0  0  0  0  0  0  0  0  0
    5.4192    3.1349   -1.2997 H   0  0  0  0  0  0  0  0  0  0  0  0
    3.9694    3.1066   -2.3032 H   0  0  0  0  0  0  0  0  0  0  0  0
    5.4578    2.3227   -4.1638 H   0  0  0  0  0  0  0  0  0  0  0  0
    8.5727    3.1113   -4.0152 H   0  0  0  0  0  0  0  0  0  0  0  0
    8.3681    3.7042   -2.3275 H   0  0  0  0  0  0  0  0  0  0  0  0
    8.6379    6.0931   -3.2366 H   0  0  0  0  0  0  0  0  0  0  0  0
    8.9675    5.3924   -4.8409 H   0  0  0  0  0  0  0  0  0  0  0  0
   10.7715    5.4610   -2.5167 H   0  0  0  0  0  0  0  0  0  0  0  0
   13.1008    2.4734   -4.7587 H   0  0  0  0  0  0  0  0  0  0  0  0
   15.4922    2.3163   -4.0792 H   0  0  0  0  0  0  0  0  0  0  0  0
   18.5939    3.3518   -2.4795 H   0  0  0  0  0  0  0  0  0  0  0  0
   17.7233    3.0661   -4.0207 H   0  0  0  0  0  0  0  0  0  0  0  0
   17.2641    2.1510   -2.5447 H   0  0  0  0  0  0  0  0  0  0  0  0
   15.3110    7.9500   -0.7898 H   0  0  0  0  0  0  0  0  0  0  0  0
   13.7534    7.0672   -0.7121 H   0  0  0  0  0  0  0  0  0  0  0  0
   14.2209    7.9379   -2.2125 H   0  0  0  0  0  0  0  0  0  0  0  0
   12.7411    6.1997   -2.6418 H   0  0  0  0  0  0  0  0  0  0  0  0
  1  2  1  0
  1 25  1  0
  1 26  1  0
  1 27  1  0
  2  3  1  0
  3  4  1  0
  3 28  1  0
  3 29  1  0
  4  5  1  0
  4 30  1  0
  4 31  1  0
  5  6  1  0
  5 32  1  0
  5 33  1  0
  7  6  1  1
  6 34  1  0
  7  8  2  0
  7  9  2  0
  7 10  1  0
 10 11  1  0
 10 35  1  0
 10 36  1  0
 11 12  1  0
 11 37  1  0
 11 38  1  0
 12 13  1  0
 12 39  1  0
 13 14  2  0
 13 15  1  0
 15 16  2  0
 15 24  1  0
 16 17  1  0
 16 40  1  0
 17 18  2  0
 17 41  1  0
 18 19  1  0
 18 21  1  0
 19 20  1  0
 20 42  1  0
 20 43  1  0
 20 44  1  0
 21 22  1  0
 21 24  2  0
 22 23  1  0
 23 45  1  0
 23 46  1  0
 23 47  1  0
 24 48  1  0
M  END

