
     RDKit          3D

 34 35  0  0  0  0  0  0  0  0999 V2000
    1.6472   -0.1854    1.6924 C   0  0  0  0  0  0  0  0  0  0  0  0
    2.9100   -0.0979    0.8702 C   0  0  0  0  0  0  0  0  0  0  0  0
    3.7519    1.0178    0.9900 C   0  0  0  0  0  0  0  0  0  0  0  0
    4.9624    1.1078    0.3001 C   0  0  0  0  0  0  0  0  0  0  0  0
    5.3456    0.0661   -0.5470 C   0  0  0  0  0  0  0  0  0  0  0  0
    6.6646    0.0908   -1.2741 C   0  0  1  0  0  0  0  0  0  0  0  0
    7.2703    1.2872   -1.1957 F   0  0  0  0  0  0  0  0  0  0  0  0
    7.5216   -0.8217   -0.7671 F   0  0  0  0  0  0  0  0  0  0  0  0
    6.5217   -0.2050   -2.5799 F   0  0  0  0  0  0  0  0  0  0  0  0
    4.5063   -1.0407   -0.7068 C   0  0  0  0  0  0  0  0  0  0  0  0
    3.2965   -1.1537   -0.0021 C   0  0  0  0  0  0  0  0  0  0  0  0
    2.4449   -2.3492   -0.1960 C   0  0  0  0  0  0  0  0  0  0  0  0
    1.1225   -2.3353   -0.7924 C   0  0  0  0  0  0  0  0  0  0  0  0
    0.4273   -1.2342   -1.1764 O   0  0  0  0  0  0  0  0  0  0  0  0
    0.7090   -3.6246   -0.9239 C   0  0  0  0  0  0  0  0  0  0  0  0
    1.6875   -4.4556   -0.4168 O   0  0  0  0  0  0  0  0  0  0  0  0
    2.7218   -3.6960    0.0058 C   0  0  0  0  0  0  0  0  0  0  0  0
    3.7524   -4.3771    0.6103 N   0  0  0  0  0  0  0  0  0  0  0  0
    4.0894   -5.7171    0.1611 C   0  0  0  0  0  0  0  0  0  0  0  0
    4.7757   -3.6632    1.3413 C   0  0  0  0  0  0  0  0  0  0  0  0
    1.5618    0.6673    2.3811 H   0  0  0  0  0  0  0  0  0  0  0  0
    1.6289   -1.1151    2.2840 H   0  0  0  0  0  0  0  0  0  0  0  0
    0.7468   -0.2088    1.0592 H   0  0  0  0  0  0  0  0  0  0  0  0
    3.4605    1.8308    1.6604 H   0  0  0  0  0  0  0  0  0  0  0  0
    5.6050    1.9810    0.4217 H   0  0  0  0  0  0  0  0  0  0  0  0
    4.7884   -1.8380   -1.3972 H   0  0  0  0  0  0  0  0  0  0  0  0
    1.0465   -0.4978   -1.2789 H   0  0  0  0  0  0  0  0  0  0  0  0
   -0.1698   -4.0953   -1.3491 H   0  0  0  0  0  0  0  0  0  0  0  0
    3.2023   -6.2103   -0.2528 H   0  0  0  0  0  0  0  0  0  0  0  0
    4.4502   -6.3149    1.0139 H   0  0  0  0  0  0  0  0  0  0  0  0
    4.8836   -5.7142   -0.6135 H   0  0  0  0  0  0  0  0  0  0  0  0
    4.3367   -2.8149    1.8839 H   0  0  0  0  0  0  0  0  0  0  0  0
    5.5919   -3.2710    0.7019 H   0  0  0  0  0  0  0  0  0  0  0  0
    5.2262   -4.3452    2.0806 H   0  0  0  0  0  0  0  0  0  0  0  0
  1  2  1  0
  1 21  1  0
  1 22  1  0
  1 23  1  0
  2  3  2  0
  2 11  1  0
  3  4  1  0
  3 24  1  0
  4  5  2  0
  4 25  1  0
  5  6  1  0
  5 10  1  0
  6  7  1  6
  6  8  1  0
  6  9  1  0
 10 11  2  0
 10 26  1  0
 11 12  1  0
 12 13  1  0
 12 17  2  0
 13 14  1  0
 13 15  2  0
 14 27  1  0
 15 16  1  0
 15 28  1  0
 16 17  1  0
 17 18  1  0
 18 19  1  0
 18 20  1  0
 19 29  1  0
 19 30  1  0
 19 31  1  0
 20 32  1  0
 20 33  1  0
 20 34  1  0
M  END

