
     RDKit          3D

 35 36  0  0  0  0  0  0  0  0999 V2000
    2.5503   -0.1489    2.1349 C   0  0  0  0  0  0  0  0  0  0  0  0
    3.3439   -0.0920    0.8541 C   0  0  0  0  0  0  0  0  0  0  0  0
    4.3407    0.8779    0.6863 C   0  0  0  0  0  0  0  0  0  0  0  0
    5.1072    0.9632   -0.4750 C   0  0  0  0  0  0  0  0  0  0  0  0
    6.3283    2.2165   -0.6084 Cl  0  0  0  0  0  0  0  0  0  0  0  0
    4.9298    0.0697   -1.5530 C   0  0  0  0  0  0  0  0  0  0  0  0
    5.7195    0.1141   -2.6774 N   0  0  0  0  0  0  0  0  0  0  0  0
    3.9240   -0.9032   -1.3941 C   0  0  0  0  0  0  0  0  0  0  0  0
    3.1558   -0.9737   -0.2322 C   0  0  0  0  0  0  0  0  0  0  0  0
    1.9423   -2.3123   -0.1731 S   0  0  1  0  0  0  0  0  0  0  0  0
    2.0403   -3.0118   -1.4636 O   0  0  0  0  0  0  0  0  0  0  0  0
    2.1072   -3.0583    1.0777 O   0  0  0  0  0  0  0  0  0  0  0  0
    0.4606   -1.5230   -0.0716 N   0  0  0  0  0  0  0  0  0  0  0  0
   -0.4849   -1.8836    0.9777 C   0  0  0  0  0  0  0  0  0  0  0  0
   -0.0596   -0.8687   -1.2761 C   0  0  0  0  0  0  0  0  0  0  0  0
   -1.1539   -1.6277   -1.9945 C   0  0  0  0  0  0  0  0  0  0  0  0
   -1.0104   -2.9562   -2.5214 C   0  0  0  0  0  0  0  0  0  0  0  0
   -2.1480   -3.4059   -3.1378 C   0  0  0  0  0  0  0  0  0  0  0  0
   -3.4148   -2.2245   -3.0940 S   0  0  0  0  0  0  0  0  0  0  0  0
   -2.4085   -1.1149   -2.2298 C   0  0  0  0  0  0  0  0  0  0  0  0
    2.9185    0.6006    2.8496 H   0  0  0  0  0  0  0  0  0  0  0  0
    2.6172   -1.1437    2.5988 H   0  0  0  0  0  0  0  0  0  0  0  0
    1.4818    0.0502    1.9539 H   0  0  0  0  0  0  0  0  0  0  0  0
    4.5331    1.5952    1.4868 H   0  0  0  0  0  0  0  0  0  0  0  0
    6.2544    0.9593   -2.8357 H   0  0  0  0  0  0  0  0  0  0  0  0
    5.3889   -0.3617   -3.5066 H   0  0  0  0  0  0  0  0  0  0  0  0
    3.7418   -1.6298   -2.1874 H   0  0  0  0  0  0  0  0  0  0  0  0
    0.0555   -2.3447    1.8121 H   0  0  0  0  0  0  0  0  0  0  0  0
   -1.2518   -2.5916    0.6187 H   0  0  0  0  0  0  0  0  0  0  0  0
   -0.9932   -0.9735    1.3393 H   0  0  0  0  0  0  0  0  0  0  0  0
    0.7874   -0.6987   -1.9583 H   0  0  0  0  0  0  0  0  0  0  0  0
   -0.4372    0.1285   -0.9902 H   0  0  0  0  0  0  0  0  0  0  0  0
   -0.0883   -3.5318   -2.4299 H   0  0  0  0  0  0  0  0  0  0  0  0
   -2.3150   -4.3677   -3.6213 H   0  0  0  0  0  0  0  0  0  0  0  0
   -2.7931   -0.1368   -1.9411 H   0  0  0  0  0  0  0  0  0  0  0  0
  1  2  1  0
  1 21  1  0
  1 22  1  0
  1 23  1  0
  2  3  2  0
  2  9  1  0
  3  4  1  0
  3 24  1  0
  4  5  1  0
  4  6  2  0
  6  7  1  0
  6  8  1  0
  7 25  1  0
  7 26  1  0
  8  9  2  0
  8 27  1  0
  9 10  1  0
 10 11  2  0
 10 12  2  0
 10 13  1  1
 13 14  1  0
 13 15  1  0
 14 28  1  0
 14 29  1  0
 14 30  1  0
 15 16  1  0
 15 31  1  0
 15 32  1  0
 16 17  1  0
 16 20  2  0
 17 18  2  0
 17 33  1  0
 18 19  1  0
 18 34  1  0
 19 20  1  0
 20 35  1  0
M  END

