
     RDKit          3D

 32 32  0  0  0  0  0  0  0  0999 V2000
    0.6213   -1.3018   -0.1906 C   0  0  0  0  0  0  0  0  0  0  0  0
    2.0871   -1.4974    0.0571 C   0  0  0  0  0  0  0  0  0  0  0  0
    2.8925   -2.3080   -0.6386 C   0  0  0  0  0  0  0  0  0  0  0  0
    4.3436   -2.5223   -0.3438 C   0  0  0  0  0  0  0  0  0  0  0  0
    5.0937   -2.2646   -1.5376 O   0  0  0  0  0  0  0  0  0  0  0  0
    6.4524   -2.4352   -1.4770 C   0  0  0  0  0  0  0  0  0  0  0  0
    7.2833   -1.3099   -1.5998 C   0  0  0  0  0  0  0  0  0  0  0  0
    6.6544    0.0651   -1.7424 C   0  0  0  0  0  0  0  0  0  0  0  0
    7.5994    1.0606   -2.2401 N   0  0  0  0  0  0  0  0  0  0  0  0
    8.6765   -1.4829   -1.5903 C   0  0  0  0  0  0  0  0  0  0  0  0
    9.2275   -2.7556   -1.4603 C   0  0  0  0  0  0  0  0  0  0  0  0
    8.4054   -3.8826   -1.3477 C   0  0  0  0  0  0  0  0  0  0  0  0
    7.0132   -3.7301   -1.3631 C   0  0  0  0  0  0  0  0  0  0  0  0
    6.1248   -4.7599   -1.2826 O   0  0  0  0  0  0  0  0  0  0  0  0
    6.6099   -6.0805   -1.2132 C   0  0  0  0  0  0  0  0  0  0  0  0
    0.0244   -1.5867    0.6940 H   0  0  0  0  0  0  0  0  0  0  0  0
    0.2684   -1.8977   -1.0464 H   0  0  0  0  0  0  0  0  0  0  0  0
    0.3902   -0.2409   -0.3919 H   0  0  0  0  0  0  0  0  0  0  0  0
    2.5177   -0.9218    0.8884 H   0  0  0  0  0  0  0  0  0  0  0  0
    2.4950   -2.8874   -1.4816 H   0  0  0  0  0  0  0  0  0  0  0  0
    4.5188   -3.5645   -0.0246 H   0  0  0  0  0  0  0  0  0  0  0  0
    4.6823   -1.8544    0.4704 H   0  0  0  0  0  0  0  0  0  0  0  0
    6.3111    0.3982   -0.7452 H   0  0  0  0  0  0  0  0  0  0  0  0
    5.7323   -0.0402   -2.3460 H   0  0  0  0  0  0  0  0  0  0  0  0
    7.8142    0.8796   -3.2219 H   0  0  0  0  0  0  0  0  0  0  0  0
    7.1790    1.9883   -2.2052 H   0  0  0  0  0  0  0  0  0  0  0  0
    9.3068   -0.5972   -1.6819 H   0  0  0  0  0  0  0  0  0  0  0  0
   10.3131   -2.8831   -1.4483 H   0  0  0  0  0  0  0  0  0  0  0  0
    8.8536   -4.8721   -1.2561 H   0  0  0  0  0  0  0  0  0  0  0  0
    5.7294   -6.7365   -1.1781 H   0  0  0  0  0  0  0  0  0  0  0  0
    7.2188   -6.2514   -0.3066 H   0  0  0  0  0  0  0  0  0  0  0  0
    7.2155   -6.3425   -2.0996 H   0  0  0  0  0  0  0  0  0  0  0  0
  1  2  1  0
  1 16  1  0
  1 17  1  0
  1 18  1  0
  2  3  2  0
  2 19  1  0
  3  4  1  0
  3 20  1  0
  4  5  1  0
  4 21  1  0
  4 22  1  0
  5  6  1  0
  6  7  2  0
  6 13  1  0
  7  8  1  0
  7 10  1  0
  8  9  1  0
  8 23  1  0
  8 24  1  0
  9 25  1  0
  9 26  1  0
 10 11  2  0
 10 27  1  0
 11 12  1  0
 11 28  1  0
 12 13  2  0
 12 29  1  0
 13 14  1  0
 14 15  1  0
 15 30  1  0
 15 31  1  0
 15 32  1  0
M  END

