
     RDKit          3D

 53 56  0  0  0  0  0  0  0  0999 V2000
    1.8340   -1.5917   -0.0894 C   0  0  0  0  0  0  0  0  0  0  0  0
    0.8969   -1.1474   -1.5653 S   0  0  1  0  0  0  0  0  0  0  0  0
   -0.4980   -1.5101   -1.3328 O   0  0  0  0  0  0  0  0  0  0  0  0
    1.2941    0.2066   -1.9422 O   0  0  0  0  0  0  0  0  0  0  0  0
    1.4432   -2.1959   -2.7675 N   0  0  0  0  0  0  0  0  0  0  0  0
    0.8783   -3.5629   -2.8734 C   0  0  0  0  0  0  0  0  0  0  0  0
    1.7071   -4.2146   -4.0030 C   0  0  0  0  0  0  0  0  0  0  0  0
    2.9402   -3.3414   -4.0859 C   0  0  0  0  0  0  0  0  0  0  0  0
    4.1372   -3.5395   -4.7551 C   0  0  0  0  0  0  0  0  0  0  0  0
    5.1210   -2.5291   -4.7518 C   0  0  0  0  0  0  0  0  0  0  0  0
    6.4404   -2.8556   -5.4023 C   0  0  0  0  0  0  0  0  0  0  0  0
    6.9164   -3.9735   -5.2568 O   0  0  0  0  0  0  0  0  0  0  0  0
    7.0964   -1.8761   -6.1303 N   0  0  0  0  0  0  0  0  0  0  0  0
    8.4179   -2.2024   -6.6540 C   0  0  0  0  0  0  0  0  0  0  0  0
    9.4264   -1.0589   -6.5301 C   0  0  0  0  0  0  0  0  0  0  0  0
    9.2111    0.1526   -7.4478 C   0  0  0  0  0  0  0  0  0  0  0  0
    8.1815    1.0948   -7.0263 N   0  0  0  0  0  0  0  0  0  0  0  0
    8.3487    2.4567   -7.2903 C   0  0  0  0  0  0  0  0  0  0  0  0
    9.2099    2.9087   -8.3195 C   0  0  0  0  0  0  0  0  0  0  0  0
    9.3819    4.2690   -8.5800 C   0  0  0  0  0  0  0  0  0  0  0  0
    8.6865    5.2095   -7.8271 C   0  0  0  0  0  0  0  0  0  0  0  0
    8.8476    6.5210   -8.0829 F   0  0  0  0  0  0  0  0  0  0  0  0
    7.8262    4.8049   -6.8117 C   0  0  0  0  0  0  0  0  0  0  0  0
    7.6647    3.4451   -6.5417 C   0  0  0  0  0  0  0  0  0  0  0  0
    6.9872    0.6480   -6.3254 C   0  0  0  0  0  0  0  0  0  0  0  0
    6.4416   -0.7275   -6.7411 C   0  0  0  0  0  0  0  0  0  0  0  0
    4.8760   -1.3463   -4.0379 C   0  0  0  0  0  0  0  0  0  0  0  0
    3.6793   -1.1354   -3.3412 C   0  0  0  0  0  0  0  0  0  0  0  0
    2.7160   -2.1472   -3.3728 C   0  0  0  0  0  0  0  0  0  0  0  0
    1.5003   -0.9026    0.6985 H   0  0  0  0  0  0  0  0  0  0  0  0
    2.9056   -1.4584   -0.2883 H   0  0  0  0  0  0  0  0  0  0  0  0
    1.6003   -2.6281    0.1869 H   0  0  0  0  0  0  0  0  0  0  0  0
   -0.1966   -3.5108   -3.0840 H   0  0  0  0  0  0  0  0  0  0  0  0
    1.0114   -4.1089   -1.9210 H   0  0  0  0  0  0  0  0  0  0  0  0
    1.1555   -4.1853   -4.9589 H   0  0  0  0  0  0  0  0  0  0  0  0
    1.9331   -5.2704   -3.7916 H   0  0  0  0  0  0  0  0  0  0  0  0
    4.3419   -4.4740   -5.2821 H   0  0  0  0  0  0  0  0  0  0  0  0
    8.3337   -2.4984   -7.7197 H   0  0  0  0  0  0  0  0  0  0  0  0
    8.7683   -3.0865   -6.1081 H   0  0  0  0  0  0  0  0  0  0  0  0
   10.4115   -1.4782   -6.7954 H   0  0  0  0  0  0  0  0  0  0  0  0
    9.5021   -0.7310   -5.4795 H   0  0  0  0  0  0  0  0  0  0  0  0
    9.0371   -0.2163   -8.4819 H   0  0  0  0  0  0  0  0  0  0  0  0
   10.1608    0.7067   -7.4828 H   0  0  0  0  0  0  0  0  0  0  0  0
    9.7373    2.1928   -8.9496 H   0  0  0  0  0  0  0  0  0  0  0  0
   10.0443    4.6062   -9.3801 H   0  0  0  0  0  0  0  0  0  0  0  0
    7.2977    5.5588   -6.2244 H   0  0  0  0  0  0  0  0  0  0  0  0
    7.0146    3.1589   -5.7151 H   0  0  0  0  0  0  0  0  0  0  0  0
    6.1893    1.3747   -6.5427 H   0  0  0  0  0  0  0  0  0  0  0  0
    7.1208    0.6522   -5.2237 H   0  0  0  0  0  0  0  0  0  0  0  0
    6.4981   -0.8191   -7.8428 H   0  0  0  0  0  0  0  0  0  0  0  0
    5.3768   -0.7575   -6.4838 H   0  0  0  0  0  0  0  0  0  0  0  0
    5.6440   -0.5716   -3.9948 H   0  0  0  0  0  0  0  0  0  0  0  0
    3.4986   -0.2066   -2.8016 H   0  0  0  0  0  0  0  0  0  0  0  0
  2  1  1  1
  1 30  1  0
  1 31  1  0
  1 32  1  0
  2  3  2  0
  2  4  2  0
  2  5  1  0
  5  6  1  0
  5 29  1  0
  6  7  1  0
  6 33  1  0
  6 34  1  0
  7  8  1  0
  7 35  1  0
  7 36  1  0
  8  9  2  0
  8 29  1  0
  9 10  1  0
  9 37  1  0
 10 11  1  0
 10 27  2  0
 11 12  2  0
 11 13  1  0
 13 14  1  0
 13 26  1  0
 14 15  1  0
 14 38  1  0
 14 39  1  0
 15 16  1  0
 15 40  1  0
 15 41  1  0
 16 17  1  0
 16 42  1  0
 16 43  1  0
 17 18  1  0
 17 25  1  0
 18 19  2  0
 18 24  1  0
 19 20  1  0
 19 44  1  0
 20 21  2  0
 20 45  1  0
 21 22  1  0
 21 23  1  0
 23 24  2  0
 23 46  1  0
 24 47  1  0
 25 26  1  0
 25 48  1  0
 25 49  1  0
 26 50  1  0
 26 51  1  0
 27 28  1  0
 27 52  1  0
 28 29  2  0
 28 53  1  0
M  END

