
     RDKit          3D

 55 56  0  0  0  0  0  0  0  0999 V2000
    2.4060    0.1368    1.8074 C   0  0  0  0  0  0  0  0  0  0  0  0
    2.8862   -0.7483    0.6820 C   0  0  0  0  0  0  0  0  0  0  0  0
    3.0399   -0.2536   -0.6179 C   0  0  0  0  0  0  0  0  0  0  0  0
    3.4863   -1.0951   -1.6446 C   0  0  0  0  0  0  0  0  0  0  0  0
    3.7848   -2.4297   -1.3902 C   0  0  0  0  0  0  0  0  0  0  0  0
    3.6384   -2.9368   -0.0878 C   0  0  0  0  0  0  0  0  0  0  0  0
    3.9720   -4.2536    0.0746 O   0  0  0  0  0  0  0  0  0  0  0  0
    3.8207   -4.9166    1.3271 C   0  0  1  0  0  0  0  0  0  0  0  0
    2.3879   -5.3871    1.5619 C   0  0  0  0  0  0  0  0  0  0  0  0
    4.7963   -6.1048    1.3808 C   0  0  0  0  0  0  0  0  0  0  0  0
    4.7826   -6.8645    2.3393 O   0  0  0  0  0  0  0  0  0  0  0  0
    5.6477   -6.2219    0.3340 N   0  0  0  0  0  0  0  0  0  0  0  0
    6.6390   -7.2796    0.2767 C   0  0  0  0  0  0  0  0  0  0  0  0
    6.0298   -8.6218   -0.1579 C   0  0  0  0  0  0  0  0  0  0  0  0
    6.9800   -9.6685   -0.1321 O   0  0  0  0  0  0  0  0  0  0  0  0
    7.2375  -10.3648    1.0230 C   0  0  0  0  0  0  0  0  0  0  0  0
    6.6676   -9.9992    2.2522 C   0  0  0  0  0  0  0  0  0  0  0  0
    6.9453  -10.7381    3.4056 C   0  0  0  0  0  0  0  0  0  0  0  0
    7.7937  -11.8382    3.3355 C   0  0  0  0  0  0  0  0  0  0  0  0
    8.3610  -12.1900    2.1059 C   0  0  0  0  0  0  0  0  0  0  0  0
    8.1122  -11.4826    0.9198 C   0  0  0  0  0  0  0  0  0  0  0  0
    8.7558  -11.9077   -0.4211 C   0  0  1  0  0  0  0  0  0  0  0  0
    7.6582  -12.2751   -1.4488 C   0  0  0  0  0  0  0  0  0  0  0  0
    9.6422  -10.7655   -0.9741 C   0  0  0  0  0  0  0  0  0  0  0  0
    9.6593  -13.1462   -0.2565 C   0  0  0  0  0  0  0  0  0  0  0  0
    3.1871   -2.0993    0.9388 C   0  0  0  0  0  0  0  0  0  0  0  0
    2.1809    1.1532    1.4534 H   0  0  0  0  0  0  0  0  0  0  0  0
    3.1648    0.2183    2.6038 H   0  0  0  0  0  0  0  0  0  0  0  0
    1.4927   -0.2681    2.2744 H   0  0  0  0  0  0  0  0  0  0  0  0
    2.8072    0.7927   -0.8314 H   0  0  0  0  0  0  0  0  0  0  0  0
    3.6014   -0.7023   -2.6583 H   0  0  0  0  0  0  0  0  0  0  0  0
    4.1301   -3.0987   -2.1810 H   0  0  0  0  0  0  0  0  0  0  0  0
    4.1399   -4.2488    2.1474 H   0  0  0  0  0  0  0  0  0  0  0  0
    2.0644   -6.0353    0.7330 H   0  0  0  0  0  0  0  0  0  0  0  0
    1.6951   -4.5360    1.6288 H   0  0  0  0  0  0  0  0  0  0  0  0
    2.3461   -5.9627    2.4967 H   0  0  0  0  0  0  0  0  0  0  0  0
    5.5485   -5.5520   -0.4202 H   0  0  0  0  0  0  0  0  0  0  0  0
    7.0959   -7.3908    1.2713 H   0  0  0  0  0  0  0  0  0  0  0  0
    7.4332   -6.9864   -0.4258 H   0  0  0  0  0  0  0  0  0  0  0  0
    5.6865   -8.5527   -1.2025 H   0  0  0  0  0  0  0  0  0  0  0  0
    5.1557   -8.8581    0.4695 H   0  0  0  0  0  0  0  0  0  0  0  0
    6.0134   -9.1296    2.3307 H   0  0  0  0  0  0  0  0  0  0  0  0
    6.4937  -10.4379    4.3546 H   0  0  0  0  0  0  0  0  0  0  0  0
    8.0219  -12.4256    4.2281 H   0  0  0  0  0  0  0  0  0  0  0  0
    9.0219  -13.0555    2.0792 H   0  0  0  0  0  0  0  0  0  0  0  0
    6.9947  -11.4266   -1.6565 H   0  0  0  0  0  0  0  0  0  0  0  0
    7.0433  -13.1112   -1.0782 H   0  0  0  0  0  0  0  0  0  0  0  0
    8.1202  -12.5924   -2.3988 H   0  0  0  0  0  0  0  0  0  0  0  0
    9.0610   -9.8535   -1.1577 H   0  0  0  0  0  0  0  0  0  0  0  0
   10.1096  -11.0739   -1.9244 H   0  0  0  0  0  0  0  0  0  0  0  0
   10.4506  -10.5230   -0.2652 H   0  0  0  0  0  0  0  0  0  0  0  0
    9.1001  -14.0248    0.1016 H   0  0  0  0  0  0  0  0  0  0  0  0
   10.4944  -12.9634    0.4378 H   0  0  0  0  0  0  0  0  0  0  0  0
   10.0954  -13.4099   -1.2328 H   0  0  0  0  0  0  0  0  0  0  0  0
    3.0583   -2.4794    1.9532 H   0  0  0  0  0  0  0  0  0  0  0  0
  1  2  1  0
  1 27  1  0
  1 28  1  0
  1 29  1  0
  2  3  2  0
  2 26  1  0
  3  4  1  0
  3 30  1  0
  4  5  2  0
  4 31  1  0
  5  6  1  0
  5 32  1  0
  6  7  1  0
  6 26  2  0
  7  8  1  0
  8  9  1  0
  8 10  1  0
  8 33  1  1
  9 34  1  0
  9 35  1  0
  9 36  1  0
 10 11  2  0
 10 12  1  0
 12 13  1  0
 12 37  1  0
 13 14  1  0
 13 38  1  0
 13 39  1  0
 14 15  1  0
 14 40  1  0
 14 41  1  0
 15 16  1  0
 16 17  2  0
 16 21  1  0
 17 18  1  0
 17 42  1  0
 18 19  2  0
 18 43  1  0
 19 20  1  0
 19 44  1  0
 20 21  2  0
 20 45  1  0
 21 22  1  0
 22 23  1  6
 22 24  1  0
 22 25  1  0
 23 46  1  0
 23 47  1  0
 23 48  1  0
 24 49  1  0
 24 50  1  0
 24 51  1  0
 25 52  1  0
 25 53  1  0
 25 54  1  0
 26 55  1  0
M  END

