
     RDKit          3D

 28 29  0  0  0  0  0  0  0  0999 V2000
    0.8746    0.3545    0.1772 C   0  0  0  0  0  0  0  0  0  0  0  0
    2.3758    0.0891    0.0196 C   0  0  1  0  0  0  0  0  0  0  0  0
    2.6513   -1.3955   -0.2441 C   0  0  0  0  0  0  0  0  0  0  0  0
    2.9611    1.0184   -1.0815 C   0  0  1  0  0  0  0  0  0  0  0  0
    2.6389    2.3709   -0.8403 O   0  0  0  0  0  0  0  0  0  0  0  0
    4.4686    0.9012   -1.2023 C   0  0  0  0  0  0  0  0  0  0  0  0
    5.2517    1.5915   -0.4351 N   0  0  0  0  0  0  0  0  0  0  0  0
    6.5846    1.3511   -0.7084 C   0  0  0  0  0  0  0  0  0  0  0  0
    7.6717    1.9460   -0.0453 C   0  0  0  0  0  0  0  0  0  0  0  0
    8.9685    1.6042   -0.4292 C   0  0  0  0  0  0  0  0  0  0  0  0
   10.0717    2.1328    0.1608 O   0  0  0  0  0  0  0  0  0  0  0  0
    9.1883    0.6736   -1.4707 C   0  0  0  0  0  0  0  0  0  0  0  0
    8.1208    0.0798   -2.1340 C   0  0  0  0  0  0  0  0  0  0  0  0
    6.8169    0.4201   -1.7519 C   0  0  0  0  0  0  0  0  0  0  0  0
    5.2770   -0.1319   -2.3804 S   0  0  0  0  0  0  0  0  0  0  0  0
    0.4635   -0.2207    1.0221 H   0  0  0  0  0  0  0  0  0  0  0  0
    0.3245    0.0531   -0.7314 H   0  0  0  0  0  0  0  0  0  0  0  0
    0.6805    1.4217    0.3498 H   0  0  0  0  0  0  0  0  0  0  0  0
    2.8838    0.3796    0.9580 H   0  0  0  0  0  0  0  0  0  0  0  0
    2.2124   -1.7173   -1.2049 H   0  0  0  0  0  0  0  0  0  0  0  0
    2.1969   -2.0150    0.5452 H   0  0  0  0  0  0  0  0  0  0  0  0
    3.7260   -1.6294   -0.2718 H   0  0  0  0  0  0  0  0  0  0  0  0
    2.5003    0.7387   -2.0464 H   0  0  0  0  0  0  0  0  0  0  0  0
    3.3531    2.7202   -0.2826 H   0  0  0  0  0  0  0  0  0  0  0  0
    7.4822    2.6627    0.7579 H   0  0  0  0  0  0  0  0  0  0  0  0
    9.8043    2.7485    0.8557 H   0  0  0  0  0  0  0  0  0  0  0  0
   10.2190    0.4351   -1.7394 H   0  0  0  0  0  0  0  0  0  0  0  0
    8.3054   -0.6368   -2.9371 H   0  0  0  0  0  0  0  0  0  0  0  0
  1  2  1  0
  1 16  1  0
  1 17  1  0
  1 18  1  0
  2  3  1  0
  2  4  1  0
  2 19  1  1
  3 20  1  0
  3 21  1  0
  3 22  1  0
  4  5  1  0
  4  6  1  0
  4 23  1  6
  5 24  1  0
  6  7  2  0
  6 15  1  0
  7  8  1  0
  8  9  2  0
  8 14  1  0
  9 10  1  0
  9 25  1  0
 10 11  1  0
 10 12  2  0
 11 26  1  0
 12 13  1  0
 12 27  1  0
 13 14  2  0
 13 28  1  0
 14 15  1  0
M  END

