
     RDKit          3D

 35 35  0  0  0  0  0  0  0  0999 V2000
    2.5754   -2.1461    2.9030 C   0  0  0  0  0  0  0  0  0  0  0  0
    1.4719   -2.6199    2.0047 C   0  0  0  0  0  0  0  0  0  0  0  0
   -0.1246   -2.8899    2.6338 S   0  0  0  0  0  0  0  0  0  0  0  0
   -0.7346   -3.3860    1.0799 C   0  0  0  0  0  0  0  0  0  0  0  0
   -2.5350   -3.8730    0.8741 Br  0  0  0  0  0  0  0  0  0  0  0  0
    0.2333   -3.3502    0.1135 C   0  0  0  0  0  0  0  0  0  0  0  0
    1.4877   -2.9171    0.6541 C   0  0  0  0  0  0  0  0  0  0  0  0
    2.9235   -2.7306   -0.3913 S   0  0  1  0  0  0  0  0  0  0  0  0
    2.4952   -2.9602   -1.7656 O   0  0  0  0  0  0  0  0  0  0  0  0
    3.6484   -1.5251    0.0072 O   0  0  0  0  0  0  0  0  0  0  0  0
    4.0273   -3.9701    0.0127 N   0  0  0  0  0  0  0  0  0  0  0  0
    3.7990   -5.4241   -0.0102 C   0  0  1  0  0  0  0  0  0  0  0  0
    2.7405   -5.8634   -1.0418 C   0  0  0  0  0  0  0  0  0  0  0  0
    2.4801   -7.3689   -1.0253 C   0  0  0  0  0  0  0  0  0  0  0  0
    1.0948   -7.7061   -2.1611 S   0  0  1  0  0  0  0  0  0  0  0  0
    0.8307   -9.4850   -2.0193 C   0  0  0  0  0  0  0  0  0  0  0  0
   -0.0945   -7.0301   -1.6176 O   0  0  0  0  0  0  0  0  0  0  0  0
    1.5543   -7.4262   -3.5278 O   0  0  0  0  0  0  0  0  0  0  0  0
    5.1448   -6.1167   -0.3280 C   0  0  0  0  0  0  0  0  0  0  0  0
    5.3624   -7.2570   -0.0134 O   0  0  0  0  0  0  0  0  0  0  0  0
    6.0090   -5.3724   -1.0192 O   0  0  0  0  0  0  0  0  0  0  0  0
    2.1759   -1.6652    3.8073 H   0  0  0  0  0  0  0  0  0  0  0  0
    3.2098   -1.4251    2.3688 H   0  0  0  0  0  0  0  0  0  0  0  0
    3.2118   -2.9860    3.2341 H   0  0  0  0  0  0  0  0  0  0  0  0
    0.0727   -3.6061   -0.9329 H   0  0  0  0  0  0  0  0  0  0  0  0
    4.5613   -3.6562    0.8233 H   0  0  0  0  0  0  0  0  0  0  0  0
    3.4901   -5.7917    0.9837 H   0  0  0  0  0  0  0  0  0  0  0  0
    3.0354   -5.5421   -2.0513 H   0  0  0  0  0  0  0  0  0  0  0  0
    1.7905   -5.3618   -0.8158 H   0  0  0  0  0  0  0  0  0  0  0  0
    2.1690   -7.7241   -0.0310 H   0  0  0  0  0  0  0  0  0  0  0  0
    3.3395   -7.9612   -1.3675 H   0  0  0  0  0  0  0  0  0  0  0  0
    0.5431   -9.7340   -0.9896 H   0  0  0  0  0  0  0  0  0  0  0  0
    1.7395  -10.0147   -2.3336 H   0  0  0  0  0  0  0  0  0  0  0  0
    0.0044   -9.7004   -2.7109 H   0  0  0  0  0  0  0  0  0  0  0  0
    5.6121   -4.4828   -1.1204 H   0  0  0  0  0  0  0  0  0  0  0  0
  1  2  1  0
  1 22  1  0
  1 23  1  0
  1 24  1  0
  2  3  1  0
  2  7  2  0
  3  4  1  0
  4  5  1  0
  4  6  2  0
  6  7  1  0
  6 25  1  0
  7  8  1  0
  8  9  2  0
  8 10  2  0
  8 11  1  1
 11 12  1  0
 11 26  1  0
 12 13  1  0
 12 19  1  0
 12 27  1  1
 13 14  1  0
 13 28  1  0
 13 29  1  0
 15 14  1  1
 14 30  1  0
 14 31  1  0
 15 16  1  0
 15 17  2  0
 15 18  2  0
 16 32  1  0
 16 33  1  0
 16 34  1  0
 19 20  2  0
 19 21  1  0
 21 35  1  0
M  END

