
     RDKit          3D

 35 36  0  0  0  0  0  0  0  0999 V2000
    2.4092    1.3599    0.3807 C   0  0  0  0  0  0  0  0  0  0  0  0
    2.3701   -0.0284    0.1251 O   0  0  0  0  0  0  0  0  0  0  0  0
    3.1020   -0.9011    0.8464 C   0  0  0  0  0  0  0  0  0  0  0  0
    3.9754   -0.5075    1.8726 C   0  0  0  0  0  0  0  0  0  0  0  0
    4.6933   -1.4431    2.6270 C   0  0  0  0  0  0  0  0  0  0  0  0
    5.6252   -0.9750    3.7153 C   0  0  0  0  0  0  0  0  0  0  0  0
    4.5325   -2.8250    2.3625 C   0  0  0  0  0  0  0  0  0  0  0  0
    5.2832   -3.8640    3.1590 C   0  0  0  0  0  0  0  0  0  0  0  0
    3.6589   -3.2008    1.3435 C   0  0  0  0  0  0  0  0  0  0  0  0
    2.9445   -2.2790    0.5570 C   0  0  0  0  0  0  0  0  0  0  0  0
    2.0603   -2.8464   -0.5085 C   0  0  0  0  0  0  0  0  0  0  0  0
    1.7637   -4.0311   -0.4905 O   0  0  0  0  0  0  0  0  0  0  0  0
    1.5329   -1.9871   -1.6648 C   0  0  0  0  0  0  0  0  0  0  0  0
    0.1200   -1.4876   -1.4384 C   0  0  0  0  0  0  0  0  0  0  0  0
   -0.9143   -2.3652   -1.0585 C   0  0  0  0  0  0  0  0  0  0  0  0
   -2.1798   -1.8283   -0.8962 C   0  0  0  0  0  0  0  0  0  0  0  0
   -2.3237   -0.4537   -1.1281 C   0  0  0  0  0  0  0  0  0  0  0  0
   -1.3109    0.3302   -1.4920 N   0  0  0  0  0  0  0  0  0  0  0  0
   -0.0974   -0.1827   -1.6448 N   0  0  0  0  0  0  0  0  0  0  0  0
    1.6971    1.8086   -0.3234 H   0  0  0  0  0  0  0  0  0  0  0  0
    3.4162    1.7788    0.2071 H   0  0  0  0  0  0  0  0  0  0  0  0
    2.0973    1.5898    1.4146 H   0  0  0  0  0  0  0  0  0  0  0  0
    4.0994    0.5519    2.0988 H   0  0  0  0  0  0  0  0  0  0  0  0
    5.6378    0.1213    3.7966 H   0  0  0  0  0  0  0  0  0  0  0  0
    6.6590   -1.3134    3.5312 H   0  0  0  0  0  0  0  0  0  0  0  0
    5.3345   -1.3850    4.6974 H   0  0  0  0  0  0  0  0  0  0  0  0
    6.3762   -3.7421    3.0670 H   0  0  0  0  0  0  0  0  0  0  0  0
    5.0317   -4.8793    2.8205 H   0  0  0  0  0  0  0  0  0  0  0  0
    5.0505   -3.8035    4.2361 H   0  0  0  0  0  0  0  0  0  0  0  0
    3.5034   -4.2579    1.1169 H   0  0  0  0  0  0  0  0  0  0  0  0
    1.5245   -2.6646   -2.5344 H   0  0  0  0  0  0  0  0  0  0  0  0
    2.1676   -1.1227   -1.8799 H   0  0  0  0  0  0  0  0  0  0  0  0
   -0.6996   -3.4246   -0.9020 H   0  0  0  0  0  0  0  0  0  0  0  0
   -3.0345   -2.4425   -0.6023 H   0  0  0  0  0  0  0  0  0  0  0  0
   -3.2920    0.0461   -1.0209 H   0  0  0  0  0  0  0  0  0  0  0  0
  1  2  1  0
  1 20  1  0
  1 21  1  0
  1 22  1  0
  2  3  1  0
  3  4  2  0
  3 10  1  0
  4  5  1  0
  4 23  1  0
  5  6  1  0
  5  7  2  0
  6 24  1  0
  6 25  1  0
  6 26  1  0
  7  8  1  0
  7  9  1  0
  8 27  1  0
  8 28  1  0
  8 29  1  0
  9 10  2  0
  9 30  1  0
 10 11  1  0
 11 12  2  0
 11 13  1  0
 13 14  1  0
 13 31  1  0
 13 32  1  0
 14 15  2  0
 14 19  1  0
 15 16  1  0
 15 33  1  0
 16 17  2  0
 16 34  1  0
 17 18  1  0
 17 35  1  0
 18 19  2  0
M  END

