
     RDKit          3D

 58 58  0  0  0  0  0  0  0  0999 V2000
    0.5181   -0.3562    0.7339 C   0  0  0  0  0  0  0  0  0  0  0  0
    2.0455   -0.3731    0.6579 C   0  0  0  0  0  0  0  0  0  0  0  0
    2.7085    0.8165    1.3595 C   0  0  0  0  0  0  0  0  0  0  0  0
    4.2382    0.8073    1.2885 C   0  0  0  0  0  0  0  0  0  0  0  0
    4.9002    1.9965    1.9908 C   0  0  0  0  0  0  0  0  0  0  0  0
    6.4301    1.9866    1.9209 C   0  0  0  0  0  0  0  0  0  0  0  0
    7.0911    3.1756    2.6245 C   0  0  0  0  0  0  0  0  0  0  0  0
    8.6212    3.1644    2.5577 C   0  0  0  0  0  0  0  0  0  0  0  0
    9.2767    4.3567    3.2588 C   0  0  0  0  0  0  0  0  0  0  0  0
   10.8042    4.3406    3.2062 C   0  0  0  0  0  0  0  0  0  0  0  0
   11.3639    5.5232    3.8433 N   0  0  0  0  0  0  0  0  0  0  0  0
   12.8198    5.5728    3.9803 C   0  0  1  0  0  0  0  0  0  0  0  0
   13.4738    5.7484    2.6005 C   0  0  0  0  0  0  0  0  0  0  0  0
   14.9903    5.9670    2.5995 C   0  0  0  0  0  0  0  0  0  0  0  0
   15.4269    7.2923    3.2595 C   0  0  0  0  0  0  0  0  0  0  0  0
   15.6301    7.2956    4.7034 N   0  0  0  0  0  0  0  0  0  0  0  0
   16.9787    6.9594    5.1369 C   0  0  0  0  0  0  0  0  0  0  0  0
   17.3312    7.4895    6.5279 C   0  0  0  0  0  0  0  0  0  0  0  0
   14.6035    6.6692    5.5303 C   0  0  0  0  0  0  0  0  0  0  0  0
   13.1730    6.6903    4.9805 C   0  0  0  0  0  0  0  0  0  0  0  0
    0.0763   -1.2248    0.2199 H   0  0  0  0  0  0  0  0  0  0  0  0
    0.1034    0.5529    0.2667 H   0  0  0  0  0  0  0  0  0  0  0  0
    0.1685   -0.3758    1.7800 H   0  0  0  0  0  0  0  0  0  0  0  0
    2.3620   -0.3916   -0.4011 H   0  0  0  0  0  0  0  0  0  0  0  0
    2.4265   -1.3123    1.0992 H   0  0  0  0  0  0  0  0  0  0  0  0
    2.3923    0.8359    2.4194 H   0  0  0  0  0  0  0  0  0  0  0  0
    2.3282    1.7571    0.9183 H   0  0  0  0  0  0  0  0  0  0  0  0
    4.5539    0.7881    0.2286 H   0  0  0  0  0  0  0  0  0  0  0  0
    4.6178   -0.1336    1.7292 H   0  0  0  0  0  0  0  0  0  0  0  0
    4.5840    2.0160    3.0506 H   0  0  0  0  0  0  0  0  0  0  0  0
    4.5213    2.9374    1.5499 H   0  0  0  0  0  0  0  0  0  0  0  0
    6.7467    1.9679    0.8613 H   0  0  0  0  0  0  0  0  0  0  0  0
    6.8092    1.0455    2.3615 H   0  0  0  0  0  0  0  0  0  0  0  0
    6.7729    3.1952    3.6836 H   0  0  0  0  0  0  0  0  0  0  0  0
    6.7144    4.1169    2.1829 H   0  0  0  0  0  0  0  0  0  0  0  0
    8.9390    3.1440    1.4986 H   0  0  0  0  0  0  0  0  0  0  0  0
    8.9978    2.2238    3.0010 H   0  0  0  0  0  0  0  0  0  0  0  0
    8.9513    4.3800    4.3168 H   0  0  0  0  0  0  0  0  0  0  0  0
    8.9234    5.3022    2.8117 H   0  0  0  0  0  0  0  0  0  0  0  0
   11.1209    4.3129    2.1495 H   0  0  0  0  0  0  0  0  0  0  0  0
   11.1792    3.3919    3.6596 H   0  0  0  0  0  0  0  0  0  0  0  0
   10.9437    5.6247    4.7668 H   0  0  0  0  0  0  0  0  0  0  0  0
   13.2123    4.6208    4.4141 H   0  0  0  0  0  0  0  0  0  0  0  0
   12.9826    6.6077    2.1088 H   0  0  0  0  0  0  0  0  0  0  0  0
   13.2408    4.8661    1.9820 H   0  0  0  0  0  0  0  0  0  0  0  0
   15.3295    5.9745    1.5493 H   0  0  0  0  0  0  0  0  0  0  0  0
   15.5115    5.1177    3.0769 H   0  0  0  0  0  0  0  0  0  0  0  0
   14.6845    8.0663    2.9892 H   0  0  0  0  0  0  0  0  0  0  0  0
   16.3739    7.6283    2.8096 H   0  0  0  0  0  0  0  0  0  0  0  0
   17.6825    7.3978    4.4111 H   0  0  0  0  0  0  0  0  0  0  0  0
   17.1614    5.8568    5.1196 H   0  0  0  0  0  0  0  0  0  0  0  0
   17.1490    8.5748    6.5828 H   0  0  0  0  0  0  0  0  0  0  0  0
   18.3944    7.3018    6.7477 H   0  0  0  0  0  0  0  0  0  0  0  0
   16.7442    7.0052    7.3237 H   0  0  0  0  0  0  0  0  0  0  0  0
   14.5934    7.1766    6.5101 H   0  0  0  0  0  0  0  0  0  0  0  0
   14.8648    5.6066    5.7535 H   0  0  0  0  0  0  0  0  0  0  0  0
   12.9255    7.6770    4.5555 H   0  0  0  0  0  0  0  0  0  0  0  0
   12.5053    6.5646    5.8512 H   0  0  0  0  0  0  0  0  0  0  0  0
  1  2  1  0
  1 21  1  0
  1 22  1  0
  1 23  1  0
  2  3  1  0
  2 24  1  0
  2 25  1  0
  3  4  1  0
  3 26  1  0
  3 27  1  0
  4  5  1  0
  4 28  1  0
  4 29  1  0
  5  6  1  0
  5 30  1  0
  5 31  1  0
  6  7  1  0
  6 32  1  0
  6 33  1  0
  7  8  1  0
  7 34  1  0
  7 35  1  0
  8  9  1  0
  8 36  1  0
  8 37  1  0
  9 10  1  0
  9 38  1  0
  9 39  1  0
 10 11  1  0
 10 40  1  0
 10 41  1  0
 11 12  1  0
 11 42  1  0
 12 13  1  0
 12 20  1  0
 12 43  1  1
 13 14  1  0
 13 44  1  0
 13 45  1  0
 14 15  1  0
 14 46  1  0
 14 47  1  0
 15 16  1  0
 15 48  1  0
 15 49  1  0
 16 17  1  0
 16 19  1  0
 17 18  1  0
 17 50  1  0
 17 51  1  0
 18 52  1  0
 18 53  1  0
 18 54  1  0
 19 20  1  0
 19 55  1  0
 19 56  1  0
 20 57  1  0
 20 58  1  0
M  END

