
     RDKit          3D

 58 61  0  0  0  0  0  0  0  0999 V2000
    1.0175   -0.0054    0.9518 C   0  0  0  0  0  0  0  0  0  0  0  0
    2.3283   -0.3454    0.4476 N   0  0  0  0  0  0  0  0  0  0  0  0
    3.1726    0.5749   -0.0706 C   0  0  0  0  0  0  0  0  0  0  0  0
    2.9239    1.7738   -0.1659 O   0  0  0  0  0  0  0  0  0  0  0  0
    4.5025    0.0304   -0.5516 C   0  0  0  0  0  0  0  0  0  0  0  0
    5.3482    0.9684   -1.0805 C   0  0  0  0  0  0  0  0  0  0  0  0
    6.5871    0.6687   -1.5649 N   0  0  0  0  0  0  0  0  0  0  0  0
    7.4629    1.7281   -2.1276 C   0  0  2  0  0  0  0  0  0  0  0  0
    7.8427    2.7792   -1.0732 C   0  0  0  0  0  0  0  0  0  0  0  0
    8.7847    3.8353   -1.6689 C   0  0  0  0  0  0  0  0  0  0  0  0
    8.1872    4.4850   -2.9235 C   0  0  0  0  0  0  0  0  0  0  0  0
    7.7987    3.4305   -3.9676 C   0  0  0  0  0  0  0  0  0  0  0  0
    6.8524    2.3727   -3.3816 C   0  0  0  0  0  0  0  0  0  0  0  0
    7.0086   -0.6235   -1.5240 C   0  0  0  0  0  0  0  0  0  0  0  0
    6.2462   -1.6435   -1.0149 C   0  0  0  0  0  0  0  0  0  0  0  0
    6.8859   -3.0062   -1.0492 C   0  0  0  0  0  0  0  0  0  0  0  0
    8.0198   -3.1568   -1.5247 O   0  0  0  0  0  0  0  0  0  0  0  0
    6.1533   -4.0137   -0.5384 N   0  0  0  0  0  0  0  0  0  0  0  0
    6.6630   -5.3824   -0.4017 C   0  0  1  0  0  0  0  0  0  0  0  0
    7.7065   -5.2942   -0.0498 H   0  0  0  0  0  0  0  0  0  0  0  0
    5.8325   -6.1413    0.6283 C   0  0  0  0  0  0  0  0  0  0  0  0
    6.7076   -6.1043   -1.7315 C   0  0  0  0  0  0  0  0  0  0  0  0
    6.0467   -7.1920   -2.0438 N   0  0  0  0  0  0  0  0  0  0  0  0
    6.4170   -7.4768   -3.3470 C   0  0  0  0  0  0  0  0  0  0  0  0
    6.0215   -8.5248   -4.1930 C   0  0  0  0  0  0  0  0  0  0  0  0
    6.5556   -8.5695   -5.4792 C   0  0  0  0  0  0  0  0  0  0  0  0
    7.4709   -7.5928   -5.9290 C   0  0  0  0  0  0  0  0  0  0  0  0
    7.8800   -6.5431   -5.1065 C   0  0  0  0  0  0  0  0  0  0  0  0
    7.3415   -6.5014   -3.8147 C   0  0  0  0  0  0  0  0  0  0  0  0
    7.5100   -5.6435   -2.7492 N   0  0  0  0  0  0  0  0  0  0  0  0
    8.0488   -4.7795   -2.6712 H   0  0  0  0  0  0  0  0  0  0  0  0
    4.9086   -1.3743   -0.4827 C   0  0  0  0  0  0  0  0  0  0  0  0
    4.1756   -2.2721   -0.0112 O   0  0  0  0  0  0  0  0  0  0  0  0
    0.9203   -0.2608    2.0211 H   0  0  0  0  0  0  0  0  0  0  0  0
    0.2250   -0.5391    0.3994 H   0  0  0  0  0  0  0  0  0  0  0  0
    0.8676    1.0753    0.8308 H   0  0  0  0  0  0  0  0  0  0  0  0
    2.6713   -1.3097    0.4622 H   0  0  0  0  0  0  0  0  0  0  0  0
    5.0144    2.0065   -1.1163 H   0  0  0  0  0  0  0  0  0  0  0  0
    8.3819    1.2014   -2.4290 H   0  0  0  0  0  0  0  0  0  0  0  0
    8.3096    2.2820   -0.2072 H   0  0  0  0  0  0  0  0  0  0  0  0
    6.9277    3.2730   -0.7023 H   0  0  0  0  0  0  0  0  0  0  0  0
    9.7489    3.3596   -1.9263 H   0  0  0  0  0  0  0  0  0  0  0  0
    9.0115    4.5985   -0.9072 H   0  0  0  0  0  0  0  0  0  0  0  0
    8.9009    5.2047   -3.3564 H   0  0  0  0  0  0  0  0  0  0  0  0
    7.2907    5.0668   -2.6414 H   0  0  0  0  0  0  0  0  0  0  0  0
    8.7117    2.9337   -4.3441 H   0  0  0  0  0  0  0  0  0  0  0  0
    7.3243    3.9059   -4.8413 H   0  0  0  0  0  0  0  0  0  0  0  0
    6.6282    1.5920   -4.1268 H   0  0  0  0  0  0  0  0  0  0  0  0
    5.8911    2.8473   -3.1180 H   0  0  0  0  0  0  0  0  0  0  0  0
    8.0025   -0.8466   -1.9165 H   0  0  0  0  0  0  0  0  0  0  0  0
    5.2140   -3.7644   -0.2055 H   0  0  0  0  0  0  0  0  0  0  0  0
    5.8408   -5.6089    1.5911 H   0  0  0  0  0  0  0  0  0  0  0  0
    6.2371   -7.1519    0.7720 H   0  0  0  0  0  0  0  0  0  0  0  0
    4.7940   -6.2541    0.2835 H   0  0  0  0  0  0  0  0  0  0  0  0
    5.3129   -9.2767   -3.8391 H   0  0  0  0  0  0  0  0  0  0  0  0
    6.2630   -9.3752   -6.1574 H   0  0  0  0  0  0  0  0  0  0  0  0
    7.8685   -7.6617   -6.9449 H   0  0  0  0  0  0  0  0  0  0  0  0
    8.5898   -5.7905   -5.4577 H   0  0  0  0  0  0  0  0  0  0  0  0
  1  2  1  0
  1 34  1  0
  1 35  1  0
  1 36  1  0
  2  3  1  0
  2 37  1  0
  3  4  2  0
  3  5  1  0
  5  6  2  0
  5 32  1  0
  6  7  1  0
  6 38  1  0
  7  8  1  0
  7 14  1  0
  8  9  1  0
  8 13  1  0
  8 39  1  6
  9 10  1  0
  9 40  1  0
  9 41  1  0
 10 11  1  0
 10 42  1  0
 10 43  1  0
 11 12  1  0
 11 44  1  0
 11 45  1  0
 12 13  1  0
 12 46  1  0
 12 47  1  0
 13 48  1  0
 13 49  1  0
 14 15  2  0
 14 50  1  0
 15 16  1  0
 15 32  1  0
 16 17  2  0
 16 18  1  0
 18 19  1  0
 18 51  1  0
 19 20  1  1
 19 21  1  0
 19 22  1  0
 21 52  1  0
 21 53  1  0
 21 54  1  0
 22 23  2  0
 22 30  1  0
 23 24  1  0
 24 25  2  0
 24 29  1  0
 25 26  1  0
 25 55  1  0
 26 27  2  0
 26 56  1  0
 27 28  1  0
 27 57  1  0
 28 29  2  0
 28 58  1  0
 29 30  1  0
 30 31  1  0
 32 33  2  0
M  END

