
     RDKit          3D

 34 36  0  0  0  0  0  0  0  0999 V2000
    1.0036   -0.0165   -0.1553 C   0  0  0  0  0  0  0  0  0  0  0  0
    2.5442   -0.0846   -0.0138 C   0  0  1  0  0  0  0  0  0  0  0  0
    3.1991   -0.0362   -1.4173 C   0  0  0  0  0  0  0  0  0  0  0  0
    2.9724    1.2274    0.7039 C   0  0  0  0  0  0  0  0  0  0  0  0
    2.6787    2.3020    0.2008 O   0  0  0  0  0  0  0  0  0  0  0  0
    3.7188    1.1436    1.9576 C   0  0  0  0  0  0  0  0  0  0  0  0
    4.0389   -0.0508    2.5140 C   0  0  0  0  0  0  0  0  0  0  0  0
    3.6779   -1.3250    1.9304 C   0  0  0  0  0  0  0  0  0  0  0  0
    4.0367   -2.5347    2.5600 C   0  0  0  0  0  0  0  0  0  0  0  0
    3.7017   -3.7673    2.0230 C   0  0  0  0  0  0  0  0  0  0  0  0
    2.9776   -3.8258    0.8080 C   0  0  0  0  0  0  0  0  0  0  0  0
    2.6236   -5.0271    0.2635 N   0  0  0  0  0  0  0  0  0  0  0  0
    3.0615   -6.3815    0.5775 C   0  0  0  0  0  0  0  0  0  0  0  0
    2.4196   -6.8518   -0.7566 C   0  0  0  0  0  0  0  0  0  0  0  0
    2.1010   -5.3610   -1.0554 C   0  0  0  0  0  0  0  0  0  0  0  0
    2.6180   -2.6133    0.1732 C   0  0  0  0  0  0  0  0  0  0  0  0
    2.9532   -1.3712    0.7110 C   0  0  0  0  0  0  0  0  0  0  0  0
    0.7257    0.9396   -0.6214 H   0  0  0  0  0  0  0  0  0  0  0  0
    0.5115   -0.0796    0.8281 H   0  0  0  0  0  0  0  0  0  0  0  0
    0.6238   -0.8398   -0.7791 H   0  0  0  0  0  0  0  0  0  0  0  0
    2.9429    0.9163   -1.9033 H   0  0  0  0  0  0  0  0  0  0  0  0
    2.8455   -0.8652   -2.0491 H   0  0  0  0  0  0  0  0  0  0  0  0
    4.2960   -0.1061   -1.3461 H   0  0  0  0  0  0  0  0  0  0  0  0
    4.0002    2.0933    2.4175 H   0  0  0  0  0  0  0  0  0  0  0  0
    4.5987   -0.0742    3.4554 H   0  0  0  0  0  0  0  0  0  0  0  0
    4.5957   -2.4933    3.4994 H   0  0  0  0  0  0  0  0  0  0  0  0
    3.9892   -4.6881    2.5343 H   0  0  0  0  0  0  0  0  0  0  0  0
    2.6265   -6.8039    1.5013 H   0  0  0  0  0  0  0  0  0  0  0  0
    4.1615   -6.4960    0.6296 H   0  0  0  0  0  0  0  0  0  0  0  0
    1.5317   -7.4861   -0.6306 H   0  0  0  0  0  0  0  0  0  0  0  0
    3.1085   -7.3334   -1.4632 H   0  0  0  0  0  0  0  0  0  0  0  0
    1.0349   -5.1122   -1.2055 H   0  0  0  0  0  0  0  0  0  0  0  0
    2.6791   -4.9217   -1.8912 H   0  0  0  0  0  0  0  0  0  0  0  0
    2.0582   -2.6634   -0.7624 H   0  0  0  0  0  0  0  0  0  0  0  0
  2  1  1  6
  1 18  1  0
  1 19  1  0
  1 20  1  0
  2  3  1  0
  2  4  1  0
  2 17  1  0
  3 21  1  0
  3 22  1  0
  3 23  1  0
  4  5  2  0
  4  6  1  0
  6  7  2  0
  6 24  1  0
  7  8  1  0
  7 25  1  0
  8  9  1  0
  8 17  2  0
  9 10  2  0
  9 26  1  0
 10 11  1  0
 10 27  1  0
 11 12  1  0
 11 16  2  0
 12 13  1  0
 12 15  1  0
 13 14  1  0
 13 28  1  0
 13 29  1  0
 14 15  1  0
 14 30  1  0
 14 31  1  0
 15 32  1  0
 15 33  1  0
 16 17  1  0
 16 34  1  0
M  END

