
     RDKit          3D

  7  7  0  0  0  0  0  0  0  0999 V2000
   -1.0896   -0.0111   -0.0023 C   0  0  0  0  0  0  0  0  0  0  0  0
   -0.3505    1.1453   -0.0008 N   0  0  0  0  0  0  0  0  0  0  0  0
    0.8583    0.6796    0.0012 C   0  0  0  0  0  0  0  0  0  0  0  0
    0.9213   -0.6535    0.0011 O   0  0  0  0  0  0  0  0  0  0  0  0
   -0.3888   -1.1133   -0.0012 N   0  0  0  0  0  0  0  0  0  0  0  0
   -2.1797   -0.0350   -0.0042 H   0  0  0  0  0  0  0  0  0  0  0  0
    1.8025    1.2248    0.0030 H   0  0  0  0  0  0  0  0  0  0  0  0
  1  2  1  0
  1  5  2  0
  1  6  1  0
  2  3  2  0
  3  4  1  0
  3  7  1  0
  4  5  1  0
M  END

