
     RDKit          3D

 22 24  0  0  0  0  0  0  0  0999 V2000
    2.0448    0.7844    0.2457 C   0  0  0  0  0  0  0  0  0  0  0  0
    2.0735   -0.5982    0.5210 C   0  0  0  0  0  0  0  0  0  0  0  0
    0.9260   -1.3984    0.4626 C   0  0  0  0  0  0  0  0  0  0  0  0
    0.9014   -2.8601    0.7419 C   0  0  1  0  0  0  0  0  0  0  0  0
    2.0586   -3.7623    0.3561 C   0  0  0  0  0  0  0  0  0  0  0  0
    1.7890   -3.4818    1.8036 C   0  0  0  0  0  0  0  0  0  0  0  0
   -0.2738   -0.7402    0.1104 C   0  0  0  0  0  0  0  0  0  0  0  0
   -1.5494   -1.2653   -0.0257 N   0  0  0  0  0  0  0  0  0  0  0  0
   -2.3005   -0.2532   -0.3629 C   0  0  0  0  0  0  0  0  0  0  0  0
   -1.6070    0.9313   -0.4646 N   0  0  0  0  0  0  0  0  0  0  0  0
   -1.9924    1.8334   -0.7127 H   0  0  0  0  0  0  0  0  0  0  0  0
   -0.2862    0.6518   -0.1637 C   0  0  0  0  0  0  0  0  0  0  0  0
    0.8665    1.4428   -0.1032 C   0  0  0  0  0  0  0  0  0  0  0  0
    2.9757    1.3540    0.3086 H   0  0  0  0  0  0  0  0  0  0  0  0
    3.0320   -1.0508    0.7885 H   0  0  0  0  0  0  0  0  0  0  0  0
   -0.0980   -3.2893    0.6380 H   0  0  0  0  0  0  0  0  0  0  0  0
    2.9293   -3.2928   -0.1117 H   0  0  0  0  0  0  0  0  0  0  0  0
    1.8176   -4.7527   -0.0414 H   0  0  0  0  0  0  0  0  0  0  0  0
    2.4726   -2.8159    2.3389 H   0  0  0  0  0  0  0  0  0  0  0  0
    1.3601   -4.2749    2.4231 H   0  0  0  0  0  0  0  0  0  0  0  0
   -3.3743   -0.2995   -0.5539 H   0  0  0  0  0  0  0  0  0  0  0  0
    0.8516    2.5141   -0.3148 H   0  0  0  0  0  0  0  0  0  0  0  0
  1  2  2  0
  1 13  1  0
  1 14  1  0
  2  3  1  0
  2 15  1  0
  3  4  1  0
  3  7  2  0
  4  5  1  0
  4  6  1  0
  4 16  1  1
  5  6  1  0
  5 17  1  0
  5 18  1  0
  6 19  1  0
  6 20  1  0
  7  8  1  0
  7 12  1  0
  8  9  2  0
  9 10  1  0
  9 21  1  0
 10 11  1  0
 10 12  1  0
 12 13  2  0
 13 22  1  0
M  END

