
     RDKit          3D

 70 72  0  0  0  0  0  0  0  0999 V2000
    3.2252    1.1384   -2.6374 C   0  0  0  0  0  0  0  0  0  0  0  0
    4.4322    1.3860   -1.9591 O   0  0  0  0  0  0  0  0  0  0  0  0
    4.4148    1.5011   -0.6026 C   0  0  0  0  0  0  0  0  0  0  0  0
    3.2715    1.3918    0.1952 C   0  0  0  0  0  0  0  0  0  0  0  0
    3.3687    1.5263    1.5880 C   0  0  0  0  0  0  0  0  0  0  0  0
    4.5994    1.7633    2.2049 C   0  0  0  0  0  0  0  0  0  0  0  0
    4.7810    1.8654    3.5474 O   0  0  0  0  0  0  0  0  0  0  0  0
    3.6589    1.8330    4.3992 C   0  0  0  0  0  0  0  0  0  0  0  0
    5.7557    1.8987    1.3929 C   0  0  0  0  0  0  0  0  0  0  0  0
    7.0285    2.2029    1.9693 N   0  0  0  0  0  0  0  0  0  0  0  0
    7.1882    3.4201    2.7781 C   0  0  0  0  0  0  0  0  0  0  0  0
    6.7236    4.6637    2.0011 C   0  0  0  0  0  0  0  0  0  0  0  0
    5.6529    5.1795    2.2878 O   0  0  0  0  0  0  0  0  0  0  0  0
    7.5323    5.1376    0.9983 N   0  0  0  0  0  0  0  0  0  0  0  0
    7.0795    6.2750    0.2109 C   0  0  0  0  0  0  0  0  0  0  0  0
    8.8524    4.6138    0.6806 C   0  0  0  0  0  0  0  0  0  0  0  0
   10.0114    5.3726    1.3091 C   0  0  0  0  0  0  0  0  0  0  0  0
    9.8481    6.3320    2.3087 C   0  0  0  0  0  0  0  0  0  0  0  0
   10.9484    6.9852    2.8819 C   0  0  0  0  0  0  0  0  0  0  0  0
   12.2339    6.6700    2.4487 C   0  0  0  0  0  0  0  0  0  0  0  0
   12.4286    5.7091    1.4479 C   0  0  0  0  0  0  0  0  0  0  0  0
   11.3236    5.0633    0.8796 C   0  0  0  0  0  0  0  0  0  0  0  0
   11.4061    4.1195   -0.0958 O   0  0  0  0  0  0  0  0  0  0  0  0
   12.6702    3.6843   -0.5414 C   0  0  0  0  0  0  0  0  0  0  0  0
    8.1527    0.9387    2.1613 S   0  0  1  0  0  0  0  0  0  0  0  0
    8.0407    0.0960    0.9717 O   0  0  0  0  0  0  0  0  0  0  0  0
    9.4169    1.5956    2.5217 O   0  0  0  0  0  0  0  0  0  0  0  0
    7.6308   -0.0374    3.5655 C   0  0  0  0  0  0  0  0  0  0  0  0
    6.7810   -1.1189    3.3695 C   0  0  0  0  0  0  0  0  0  0  0  0
    6.3550   -1.8565    4.4826 C   0  0  0  0  0  0  0  0  0  0  0  0
    6.7765   -1.5174    5.7716 C   0  0  0  0  0  0  0  0  0  0  0  0
    6.4206   -2.1704    6.8978 O   0  0  0  0  0  0  0  0  0  0  0  0
    5.5713   -3.2921    6.8060 C   0  0  0  0  0  0  0  0  0  0  0  0
    7.6607   -0.4123    5.9556 C   0  0  0  0  0  0  0  0  0  0  0  0
    8.0357   -0.1679    7.2308 O   0  0  0  0  0  0  0  0  0  0  0  0
    8.9195    0.9009    7.4884 C   0  0  0  0  0  0  0  0  0  0  0  0
    8.0830    0.3187    4.8473 C   0  0  0  0  0  0  0  0  0  0  0  0
    5.6498    1.7643    0.0107 C   0  0  0  0  0  0  0  0  0  0  0  0
    3.4699    1.0838   -3.7070 H   0  0  0  0  0  0  0  0  0  0  0  0
    2.4884    1.9485   -2.4818 H   0  0  0  0  0  0  0  0  0  0  0  0
    2.7653    0.1810   -2.3288 H   0  0  0  0  0  0  0  0  0  0  0  0
    2.2922    1.2028   -0.2445 H   0  0  0  0  0  0  0  0  0  0  0  0
    2.4617    1.4336    2.1851 H   0  0  0  0  0  0  0  0  0  0  0  0
    4.0390    1.9598    5.4216 H   0  0  0  0  0  0  0  0  0  0  0  0
    3.1243    0.8679    4.3356 H   0  0  0  0  0  0  0  0  0  0  0  0
    2.9524    2.6513    4.1735 H   0  0  0  0  0  0  0  0  0  0  0  0
    8.2447    3.4936    3.0637 H   0  0  0  0  0  0  0  0  0  0  0  0
    6.5636    3.3879    3.6812 H   0  0  0  0  0  0  0  0  0  0  0  0
    6.1083    6.6031    0.5985 H   0  0  0  0  0  0  0  0  0  0  0  0
    6.9732    5.9919   -0.8509 H   0  0  0  0  0  0  0  0  0  0  0  0
    7.7986    7.1089    0.2738 H   0  0  0  0  0  0  0  0  0  0  0  0
    8.9733    4.6223   -0.4152 H   0  0  0  0  0  0  0  0  0  0  0  0
    8.9267    3.5557    0.9636 H   0  0  0  0  0  0  0  0  0  0  0  0
    8.8380    6.5751    2.6472 H   0  0  0  0  0  0  0  0  0  0  0  0
   10.7941    7.7340    3.6622 H   0  0  0  0  0  0  0  0  0  0  0  0
   13.1022    7.1694    2.8864 H   0  0  0  0  0  0  0  0  0  0  0  0
   13.4409    5.4708    1.1207 H   0  0  0  0  0  0  0  0  0  0  0  0
   12.4858    2.9067   -1.2945 H   0  0  0  0  0  0  0  0  0  0  0  0
   13.2659    3.2510    0.2817 H   0  0  0  0  0  0  0  0  0  0  0  0
   13.2475    4.5042   -1.0064 H   0  0  0  0  0  0  0  0  0  0  0  0
    6.4661   -1.3942    2.3627 H   0  0  0  0  0  0  0  0  0  0  0  0
    5.6938   -2.7093    4.3302 H   0  0  0  0  0  0  0  0  0  0  0  0
    5.4263   -3.6573    7.8313 H   0  0  0  0  0  0  0  0  0  0  0  0
    6.0201   -4.0981    6.1980 H   0  0  0  0  0  0  0  0  0  0  0  0
    4.5876   -3.0289    6.3766 H   0  0  0  0  0  0  0  0  0  0  0  0
    9.0827    0.9152    8.5742 H   0  0  0  0  0  0  0  0  0  0  0  0
    8.4923    1.8710    7.1763 H   0  0  0  0  0  0  0  0  0  0  0  0
    9.8908    0.7618    6.9805 H   0  0  0  0  0  0  0  0  0  0  0  0
    8.7818    1.1470    4.9499 H   0  0  0  0  0  0  0  0  0  0  0  0
    6.5428    1.8571   -0.6059 H   0  0  0  0  0  0  0  0  0  0  0  0
  1  2  1  0
  1 39  1  0
  1 40  1  0
  1 41  1  0
  2  3  1  0
  3  4  2  0
  3 38  1  0
  4  5  1  0
  4 42  1  0
  5  6  2  0
  5 43  1  0
  6  7  1  0
  6  9  1  0
  7  8  1  0
  8 44  1  0
  8 45  1  0
  8 46  1  0
  9 10  1  0
  9 38  2  0
 10 11  1  0
 25 10  1  6
 11 12  1  0
 11 47  1  0
 11 48  1  0
 12 13  2  0
 12 14  1  0
 14 15  1  0
 14 16  1  0
 15 49  1  0
 15 50  1  0
 15 51  1  0
 16 17  1  0
 16 52  1  0
 16 53  1  0
 17 18  2  0
 17 22  1  0
 18 19  1  0
 18 54  1  0
 19 20  2  0
 19 55  1  0
 20 21  1  0
 20 56  1  0
 21 22  2  0
 21 57  1  0
 22 23  1  0
 23 24  1  0
 24 58  1  0
 24 59  1  0
 24 60  1  0
 25 26  2  0
 25 27  2  0
 25 28  1  0
 28 29  2  0
 28 37  1  0
 29 30  1  0
 29 61  1  0
 30 31  2  0
 30 62  1  0
 31 32  1  0
 31 34  1  0
 32 33  1  0
 33 63  1  0
 33 64  1  0
 33 65  1  0
 34 35  1  0
 34 37  2  0
 35 36  1  0
 36 66  1  0
 36 67  1  0
 36 68  1  0
 37 69  1  0
 38 70  1  0
M  END

