
     RDKit          3D

 27 28  0  0  0  0  0  0  0  0999 V2000
    1.1876    0.3210    0.1203 C   0  0  0  0  0  0  0  0  0  0  0  0
    2.6512   -0.1036   -0.0774 C   0  0  1  0  0  0  0  0  0  0  0  0
    2.7359   -1.6028   -0.3835 C   0  0  0  0  0  0  0  0  0  0  0  0
    2.6632   -2.4271    0.5079 O   0  0  0  0  0  0  0  0  0  0  0  0
    2.8623   -1.9181   -1.6996 N   0  0  0  0  0  0  0  0  0  0  0  0
    2.8032   -0.9539   -2.7761 C   0  0  0  0  0  0  0  0  0  0  0  0
    3.3562    0.4230   -2.4137 C   0  0  0  0  0  0  0  0  0  0  0  0
    3.7576    1.1641   -3.2888 O   0  0  0  0  0  0  0  0  0  0  0  0
    3.3530    0.7369   -1.0704 N   0  0  0  0  0  0  0  0  0  0  0  0
    3.8751    1.9937   -0.6286 C   0  0  0  0  0  0  0  0  0  0  0  0
    3.4934    3.1910   -1.2500 C   0  0  0  0  0  0  0  0  0  0  0  0
    4.0186    4.3947   -0.7926 C   0  0  0  0  0  0  0  0  0  0  0  0
    3.6664    5.5415   -1.3739 F   0  0  0  0  0  0  0  0  0  0  0  0
    4.9088    4.4421    0.2837 C   0  0  0  0  0  0  0  0  0  0  0  0
    5.3956    5.6018    0.7153 F   0  0  0  0  0  0  0  0  0  0  0  0
    5.2774    3.2403    0.8926 C   0  0  0  0  0  0  0  0  0  0  0  0
    6.1348    3.2779    1.9132 F   0  0  0  0  0  0  0  0  0  0  0  0
    4.7792    2.0215    0.4438 C   0  0  0  0  0  0  0  0  0  0  0  0
    0.7252   -0.3009    0.9006 H   0  0  0  0  0  0  0  0  0  0  0  0
    0.6067    0.2043   -0.8086 H   0  0  0  0  0  0  0  0  0  0  0  0
    1.1317    1.3750    0.4318 H   0  0  0  0  0  0  0  0  0  0  0  0
    3.1748    0.0037    0.8807 H   0  0  0  0  0  0  0  0  0  0  0  0
    2.8659   -2.9104   -1.9181 H   0  0  0  0  0  0  0  0  0  0  0  0
    1.7725   -0.8066   -3.1573 H   0  0  0  0  0  0  0  0  0  0  0  0
    3.4057   -1.2985   -3.6278 H   0  0  0  0  0  0  0  0  0  0  0  0
    2.8146    3.2034   -2.1002 H   0  0  0  0  0  0  0  0  0  0  0  0
    5.1222    1.1099    0.9343 H   0  0  0  0  0  0  0  0  0  0  0  0
  1  2  1  0
  1 19  1  0
  1 20  1  0
  1 21  1  0
  2  3  1  0
  2  9  1  0
  2 22  1  1
  3  4  2  0
  3  5  1  0
  5  6  1  0
  5 23  1  0
  6  7  1  0
  6 24  1  0
  6 25  1  0
  7  8  2  0
  7  9  1  0
  9 10  1  0
 10 11  2  0
 10 18  1  0
 11 12  1  0
 11 26  1  0
 12 13  1  0
 12 14  2  0
 14 15  1  0
 14 16  1  0
 16 17  1  0
 16 18  2  0
 18 27  1  0
M  END

