
     RDKit          3D

 60 64  0  0  0  0  0  0  0  0999 V2000
    0.8868    0.1282    0.6464 C   0  0  0  0  0  0  0  0  0  0  0  0
    2.0538    0.4029   -0.1781 N   0  0  0  0  0  0  0  0  0  0  0  0
    2.3745   -0.3322   -1.2975 C   0  0  0  0  0  0  0  0  0  0  0  0
    3.1644    0.0749   -2.1392 O   0  0  0  0  0  0  0  0  0  0  0  0
    1.7758   -1.7101   -1.4768 C   0  0  0  0  0  0  0  0  0  0  0  0
    1.2780   -2.0534   -2.7471 C   0  0  0  0  0  0  0  0  0  0  0  0
    0.8125   -3.3394   -2.9976 C   0  0  0  0  0  0  0  0  0  0  0  0
    0.8682   -4.3184   -1.9901 C   0  0  0  0  0  0  0  0  0  0  0  0
    0.3813   -5.6958   -2.2572 C   0  0  0  0  0  0  0  0  0  0  0  0
   -0.0940   -6.0659   -3.3056 O   0  0  0  0  0  0  0  0  0  0  0  0
    1.3948   -3.9886   -0.7332 C   0  0  0  0  0  0  0  0  0  0  0  0
    1.8402   -2.6915   -0.4748 C   0  0  0  0  0  0  0  0  0  0  0  0
    2.8639    1.6270    0.0341 C   0  0  1  0  0  0  0  0  0  0  0  0
    2.3772    2.8481   -0.7776 C   0  0  0  0  0  0  0  0  0  0  0  0
    1.2638    3.6649   -0.1054 C   0  0  0  0  0  0  0  0  0  0  0  0
    1.6227    4.0535    1.2666 N   0  0  0  0  0  0  0  0  0  0  0  0
    2.2972    5.2474    1.4984 C   0  0  0  0  0  0  0  0  0  0  0  0
    3.4072    5.1919    2.2187 N   0  0  0  0  0  0  0  0  0  0  0  0
    4.1577    6.2785    2.4298 N   0  0  0  0  0  0  0  0  0  0  0  0
    3.8385    7.4541    1.9199 C   0  0  0  0  0  0  0  0  0  0  0  0
    4.8359    8.5258    2.0851 C   0  0  0  0  0  0  0  0  0  0  0  0
    5.2404    9.5293    1.2009 C   0  0  0  0  0  0  0  0  0  0  0  0
    6.2830   10.1994    1.8705 C   0  0  0  0  0  0  0  0  0  0  0  0
    6.5074    9.6684    3.0697 N   0  0  0  0  0  0  0  0  0  0  0  0
    5.6359    8.6588    3.1919 N   0  0  0  0  0  0  0  0  0  0  0  0
    5.6544    7.8647    4.4095 C   0  0  0  0  0  0  0  0  0  0  0  0
    2.5712    7.6650    1.2568 C   0  0  0  0  0  0  0  0  0  0  0  0
    2.0614    8.9405    0.8991 C   0  0  0  0  0  0  0  0  0  0  0  0
    0.7875    9.0683    0.3772 C   0  0  0  0  0  0  0  0  0  0  0  0
   -0.0378    7.9334    0.2230 C   0  0  0  0  0  0  0  0  0  0  0  0
    0.4323    6.6803    0.5703 C   0  0  0  0  0  0  0  0  0  0  0  0
    1.7518    6.5163    1.0622 C   0  0  0  0  0  0  0  0  0  0  0  0
    1.9493    2.8965    2.1059 C   0  0  0  0  0  0  0  0  0  0  0  0
    3.0566    2.0085    1.5152 C   0  0  0  0  0  0  0  0  0  0  0  0
    0.3480   -0.7427    0.2588 H   0  0  0  0  0  0  0  0  0  0  0  0
    0.1823    0.9751    0.6368 H   0  0  0  0  0  0  0  0  0  0  0  0
    1.1554   -0.0775    1.6958 H   0  0  0  0  0  0  0  0  0  0  0  0
    1.2730   -1.2961   -3.5337 H   0  0  0  0  0  0  0  0  0  0  0  0
    0.4086   -3.6194   -3.9732 H   0  0  0  0  0  0  0  0  0  0  0  0
    0.4850   -6.4001   -1.3901 H   0  0  0  0  0  0  0  0  0  0  0  0
    1.4571   -4.7552    0.0452 H   0  0  0  0  0  0  0  0  0  0  0  0
    2.2570   -2.4444    0.5044 H   0  0  0  0  0  0  0  0  0  0  0  0
    3.8454    1.3601   -0.3779 H   0  0  0  0  0  0  0  0  0  0  0  0
    2.0678    2.5222   -1.7821 H   0  0  0  0  0  0  0  0  0  0  0  0
    3.2456    3.5137   -0.9226 H   0  0  0  0  0  0  0  0  0  0  0  0
    0.3189    3.0940   -0.0710 H   0  0  0  0  0  0  0  0  0  0  0  0
    1.0657    4.5617   -0.7049 H   0  0  0  0  0  0  0  0  0  0  0  0
    4.8584    9.7143    0.2004 H   0  0  0  0  0  0  0  0  0  0  0  0
    6.8780   11.0461    1.5292 H   0  0  0  0  0  0  0  0  0  0  0  0
    6.2226    8.4392    5.1511 H   0  0  0  0  0  0  0  0  0  0  0  0
    6.1252    6.8878    4.2361 H   0  0  0  0  0  0  0  0  0  0  0  0
    4.6320    7.6901    4.7704 H   0  0  0  0  0  0  0  0  0  0  0  0
    2.6725    9.8260    1.0706 H   0  0  0  0  0  0  0  0  0  0  0  0
    0.4054   10.0575    0.1132 H   0  0  0  0  0  0  0  0  0  0  0  0
   -1.0591    8.0494   -0.1480 H   0  0  0  0  0  0  0  0  0  0  0  0
   -0.2255    5.8139    0.5025 H   0  0  0  0  0  0  0  0  0  0  0  0
    1.0143    2.3286    2.2456 H   0  0  0  0  0  0  0  0  0  0  0  0
    2.2660    3.2640    3.0889 H   0  0  0  0  0  0  0  0  0  0  0  0
    3.1949    1.1064    2.1338 H   0  0  0  0  0  0  0  0  0  0  0  0
    3.9941    2.5815    1.5828 H   0  0  0  0  0  0  0  0  0  0  0  0
  1  2  1  0
  1 35  1  0
  1 36  1  0
  1 37  1  0
  2  3  1  0
  2 13  1  0
  3  4  2  0
  3  5  1  0
  5  6  2  0
  5 12  1  0
  6  7  1  0
  6 38  1  0
  7  8  2  0
  7 39  1  0
  8  9  1  0
  8 11  1  0
  9 10  2  0
  9 40  1  0
 11 12  2  0
 11 41  1  0
 12 42  1  0
 13 14  1  0
 13 34  1  0
 13 43  1  6
 14 15  1  0
 14 44  1  0
 14 45  1  0
 15 16  1  0
 15 46  1  0
 15 47  1  0
 16 17  1  0
 16 33  1  0
 17 18  2  0
 17 32  1  0
 18 19  1  0
 19 20  2  0
 20 21  1  0
 20 27  1  0
 21 22  2  0
 21 25  1  0
 22 23  1  0
 22 48  1  0
 23 24  2  0
 23 49  1  0
 24 25  1  0
 25 26  1  0
 26 50  1  0
 26 51  1  0
 26 52  1  0
 27 28  1  0
 27 32  2  0
 28 29  2  0
 28 53  1  0
 29 30  1  0
 29 54  1  0
 30 31  2  0
 30 55  1  0
 31 32  1  0
 31 56  1  0
 33 34  1  0
 33 57  1  0
 33 58  1  0
 34 59  1  0
 34 60  1  0
M  END

