
     RDKit          3D

 50 53  0  0  0  0  0  0  0  0999 V2000
    9.0504    3.2320   -0.1455 C   0  0  0  0  0  0  0  0  0  0  0  0
    8.0677    2.2056   -0.4198 N   0  0  0  0  0  0  0  0  0  0  0  0
    8.4133    0.9161   -0.7135 C   0  0  0  0  0  0  0  0  0  0  0  0
    9.5752    0.5378   -0.7685 O   0  0  0  0  0  0  0  0  0  0  0  0
    7.2664   -0.0344   -0.9603 C   0  0  0  0  0  0  0  0  0  0  0  0
    5.9671    0.3695   -1.3068 C   0  0  0  0  0  0  0  0  0  0  0  0
    4.9817   -0.5956   -1.5254 C   0  0  0  0  0  0  0  0  0  0  0  0
    5.2585   -1.9591   -1.4089 C   0  0  0  0  0  0  0  0  0  0  0  0
    6.5640   -2.3703   -1.0777 C   0  0  0  0  0  0  0  0  0  0  0  0
    6.9477   -3.7181   -0.9583 N   0  0  0  0  0  0  0  0  0  0  0  0
    6.1728   -4.8586   -1.0798 C   0  0  0  0  0  0  0  0  0  0  0  0
    4.9664   -4.8365   -1.2545 O   0  0  0  0  0  0  0  0  0  0  0  0
    6.9621   -6.1211   -1.0071 C   0  0  0  0  0  0  0  0  0  0  0  0
    8.2429   -6.2883   -1.5146 C   0  0  0  0  0  0  0  0  0  0  0  0
    8.5736   -7.5975   -1.3611 N   0  0  0  0  0  0  0  0  0  0  0  0
    9.7862   -8.2455   -1.7264 C   0  0  0  0  0  0  0  0  0  0  0  0
   10.6442   -7.6694   -2.6737 C   0  0  0  0  0  0  0  0  0  0  0  0
   11.8390   -8.3120   -3.0047 C   0  0  0  0  0  0  0  0  0  0  0  0
   12.1780   -9.5302   -2.4093 C   0  0  0  0  0  0  0  0  0  0  0  0
   11.3095  -10.1046   -1.4756 C   0  0  0  0  0  0  0  0  0  0  0  0
   10.1169   -9.4693   -1.1279 C   0  0  0  0  0  0  0  0  0  0  0  0
    7.5835   -8.2899   -0.7694 N   0  0  0  0  0  0  0  0  0  0  0  0
    6.5856   -7.4354   -0.5510 C   0  0  0  0  0  0  0  0  0  0  0  0
    5.3510   -7.9348    0.0945 C   0  0  0  0  0  0  0  0  0  0  0  0
    4.4562   -7.0925    0.7769 C   0  0  0  0  0  0  0  0  0  0  0  0
    3.3224   -7.6175    1.4008 C   0  0  0  0  0  0  0  0  0  0  0  0
    3.0583   -8.9888    1.3547 C   0  0  0  0  0  0  0  0  0  0  0  0
    3.9419   -9.8366    0.6784 C   0  0  0  0  0  0  0  0  0  0  0  0
    5.0761   -9.3163    0.0564 C   0  0  0  0  0  0  0  0  0  0  0  0
    7.5541   -1.3986   -0.8632 C   0  0  0  0  0  0  0  0  0  0  0  0
    8.8783    4.1260   -0.7678 H   0  0  0  0  0  0  0  0  0  0  0  0
   10.0401    2.8182   -0.3775 H   0  0  0  0  0  0  0  0  0  0  0  0
    9.0404    3.5387    0.9152 H   0  0  0  0  0  0  0  0  0  0  0  0
    7.0915    2.4176   -0.2615 H   0  0  0  0  0  0  0  0  0  0  0  0
    5.7216    1.4255   -1.4413 H   0  0  0  0  0  0  0  0  0  0  0  0
    3.9711   -0.2836   -1.8009 H   0  0  0  0  0  0  0  0  0  0  0  0
    4.4872   -2.7080   -1.5708 H   0  0  0  0  0  0  0  0  0  0  0  0
    7.9107   -3.8622   -0.6791 H   0  0  0  0  0  0  0  0  0  0  0  0
    8.9134   -5.5767   -1.9887 H   0  0  0  0  0  0  0  0  0  0  0  0
   10.3799   -6.7345   -3.1702 H   0  0  0  0  0  0  0  0  0  0  0  0
   12.5028   -7.8583   -3.7446 H   0  0  0  0  0  0  0  0  0  0  0  0
   13.1117  -10.0311   -2.6751 H   0  0  0  0  0  0  0  0  0  0  0  0
   11.5634  -11.0581   -1.0058 H   0  0  0  0  0  0  0  0  0  0  0  0
    9.4311   -9.9022   -0.4005 H   0  0  0  0  0  0  0  0  0  0  0  0
    4.6345   -6.0195    0.8175 H   0  0  0  0  0  0  0  0  0  0  0  0
    2.6392   -6.9452    1.9260 H   0  0  0  0  0  0  0  0  0  0  0  0
    2.1674   -9.3951    1.8405 H   0  0  0  0  0  0  0  0  0  0  0  0
    3.7442  -10.9108    0.6321 H   0  0  0  0  0  0  0  0  0  0  0  0
    5.7659   -9.9753   -0.4727 H   0  0  0  0  0  0  0  0  0  0  0  0
    8.5817   -1.6826   -0.6218 H   0  0  0  0  0  0  0  0  0  0  0  0
  1  2  1  0
  1 31  1  0
  1 32  1  0
  1 33  1  0
  2  3  1  0
  2 34  1  0
  3  4  2  0
  3  5  1  0
  5  6  2  0
  5 30  1  0
  6  7  1  0
  6 35  1  0
  7  8  2  0
  7 36  1  0
  8  9  1  0
  8 37  1  0
  9 10  1  0
  9 30  2  0
 10 11  1  0
 10 38  1  0
 11 12  2  0
 11 13  1  0
 13 14  2  0
 13 23  1  0
 14 15  1  0
 14 39  1  0
 15 16  1  0
 15 22  1  0
 16 17  2  0
 16 21  1  0
 17 18  1  0
 17 40  1  0
 18 19  2  0
 18 41  1  0
 19 20  1  0
 19 42  1  0
 20 21  2  0
 20 43  1  0
 21 44  1  0
 22 23  2  0
 23 24  1  0
 24 25  2  0
 24 29  1  0
 25 26  1  0
 25 45  1  0
 26 27  2  0
 26 46  1  0
 27 28  1  0
 27 47  1  0
 28 29  2  0
 28 48  1  0
 29 49  1  0
 30 50  1  0
M  END

