
     RDKit          3D

 83 90  0  0  0  0  0  0  0  0999 V2000
    1.0475   -0.3203    0.2912 C   0  0  0  0  0  0  0  0  0  0  0  0
    2.5315   -0.1386    0.3020 C   0  0  0  0  0  0  0  0  0  0  0  0
    3.1152    1.0203   -0.0671 N   0  0  0  0  0  0  0  0  0  0  0  0
    4.4976    0.9011    0.0802 C   0  0  0  0  0  0  0  0  0  0  0  0
    5.3530    1.9817   -0.2781 C   0  0  0  0  0  0  0  0  0  0  0  0
    6.7078    1.9840   -0.1296 N   0  0  0  0  0  0  0  0  0  0  0  0
    7.6025    1.2795    0.8067 C   0  0  1  0  0  0  0  0  0  0  0  0
    7.1251    1.3724    2.2637 C   0  0  0  0  0  0  0  0  0  0  0  0
    8.0208   -0.1163    0.3266 C   0  0  0  0  0  0  0  0  0  0  0  0
    8.0755   -0.4003   -1.0474 C   0  0  0  0  0  0  0  0  0  0  0  0
    8.5132   -1.6440   -1.5069 C   0  0  0  0  0  0  0  0  0  0  0  0
    8.9082   -2.6315   -0.5991 C   0  0  0  0  0  0  0  0  0  0  0  0
    8.8615   -2.3609    0.7702 C   0  0  0  0  0  0  0  0  0  0  0  0
    8.4229   -1.1138    1.2287 C   0  0  0  0  0  0  0  0  0  0  0  0
    4.7853    3.1532   -0.8748 C   0  0  0  0  0  0  0  0  0  0  0  0
    5.4085    4.3400   -1.3193 C   0  0  0  0  0  0  0  0  0  0  0  0
    4.4008    5.1629   -1.8288 C   0  0  0  0  0  0  0  0  0  0  0  0
    3.1806    4.4757   -1.6768 C   0  0  0  0  0  0  0  0  0  0  0  0
    1.8052    4.9320   -2.0401 C   0  0  0  0  0  0  0  0  0  0  0  0
    3.4254    3.2705   -1.1073 N   0  0  0  0  0  0  0  0  0  0  0  0
    2.3437    2.2410   -0.6735 B   0  0  1  0  0  0  0  0  0  0  0  0
    1.6082    1.8227   -1.7763 F   0  0  0  0  0  0  0  0  0  0  0  0
    1.5070    2.8074    0.2853 F   0  0  0  0  0  0  0  0  0  0  0  0
    4.7641   -0.4029    0.5453 C   0  0  0  0  0  0  0  0  0  0  0  0
    3.5393   -1.0700    0.6844 C   0  0  0  0  0  0  0  0  0  0  0  0
    3.3701   -2.4503    1.1348 C   0  0  0  0  0  0  0  0  0  0  0  0
    4.2597   -3.1979    1.9157 C   0  0  0  0  0  0  0  0  0  0  0  0
    3.7169   -4.5013    2.0635 C   0  0  0  0  0  0  0  0  0  0  0  0
    2.5043   -4.5412    1.3785 N   0  0  0  0  0  0  0  0  0  0  0  0
    2.2996   -3.3423    0.8269 C   0  0  0  0  0  0  0  0  0  0  0  0
    1.5037   -5.7529    1.3520 B   0  0  2  0  0  0  0  0  0  0  0  0
    1.1596   -6.0577    0.0507 F   0  0  0  0  0  0  0  0  0  0  0  0
    0.3900   -5.4499    2.1140 F   0  0  0  0  0  0  0  0  0  0  0  0
    2.2872   -6.9448    2.0039 N   0  0  0  0  0  0  0  0  0  0  0  0
    1.8663   -8.2145    2.0909 C   0  0  0  0  0  0  0  0  0  0  0  0
    2.7942   -8.9896    2.8222 C   0  0  0  0  0  0  0  0  0  0  0  0
    3.8262   -8.1311    3.1915 C   0  0  0  0  0  0  0  0  0  0  0  0
    3.5044   -6.8467    2.6718 C   0  0  0  0  0  0  0  0  0  0  0  0
    4.2215   -5.6367    2.7169 C   0  0  0  0  0  0  0  0  0  0  0  0
    5.5302   -5.5681    3.4393 C   0  0  0  0  0  0  0  0  0  0  0  0
    6.7284   -5.8649    2.7547 C   0  0  0  0  0  0  0  0  0  0  0  0
    6.7227   -6.2430    1.2920 C   0  0  0  0  0  0  0  0  0  0  0  0
    7.9401   -5.7987    3.4595 C   0  0  0  0  0  0  0  0  0  0  0  0
    7.9949   -5.4477    4.8128 C   0  0  0  0  0  0  0  0  0  0  0  0
    9.3061   -5.3892    5.5588 C   0  0  0  0  0  0  0  0  0  0  0  0
    6.7895   -5.1554    5.4657 C   0  0  0  0  0  0  0  0  0  0  0  0
    5.5553   -5.2085    4.8074 C   0  0  0  0  0  0  0  0  0  0  0  0
    4.2811   -4.8878    5.5527 C   0  0  0  0  0  0  0  0  0  0  0  0
    0.5435    0.6293    0.5130 H   0  0  0  0  0  0  0  0  0  0  0  0
    0.7429   -1.0649    1.0394 H   0  0  0  0  0  0  0  0  0  0  0  0
    0.6935   -0.6566   -0.6979 H   0  0  0  0  0  0  0  0  0  0  0  0
    7.1341    2.8133   -0.5207 H   0  0  0  0  0  0  0  0  0  0  0  0
    8.5244    1.8853    0.7551 H   0  0  0  0  0  0  0  0  0  0  0  0
    6.2515    0.7385    2.4652 H   0  0  0  0  0  0  0  0  0  0  0  0
    6.8552    2.4133    2.4956 H   0  0  0  0  0  0  0  0  0  0  0  0
    7.9312    1.0795    2.9512 H   0  0  0  0  0  0  0  0  0  0  0  0
    7.7553    0.3586   -1.7642 H   0  0  0  0  0  0  0  0  0  0  0  0
    8.5398   -1.8443   -2.5810 H   0  0  0  0  0  0  0  0  0  0  0  0
    9.2467   -3.6066   -0.9579 H   0  0  0  0  0  0  0  0  0  0  0  0
    9.1597   -3.1247    1.4928 H   0  0  0  0  0  0  0  0  0  0  0  0
    8.3936   -0.9315    2.3041 H   0  0  0  0  0  0  0  0  0  0  0  0
    6.4701    4.5836   -1.2824 H   0  0  0  0  0  0  0  0  0  0  0  0
    4.5166    6.1549   -2.2613 H   0  0  0  0  0  0  0  0  0  0  0  0
    1.8416    5.9243   -2.5099 H   0  0  0  0  0  0  0  0  0  0  0  0
    1.1626    4.9821   -1.1468 H   0  0  0  0  0  0  0  0  0  0  0  0
    1.3267    4.2220   -2.7322 H   0  0  0  0  0  0  0  0  0  0  0  0
    5.7415   -0.8389    0.7154 H   0  0  0  0  0  0  0  0  0  0  0  0
    5.2027   -2.8630    2.3420 H   0  0  0  0  0  0  0  0  0  0  0  0
    1.4154   -3.1626    0.2183 H   0  0  0  0  0  0  0  0  0  0  0  0
    0.9256   -8.5200    1.6340 H   0  0  0  0  0  0  0  0  0  0  0  0
    2.7042  -10.0517    3.0407 H   0  0  0  0  0  0  0  0  0  0  0  0
    4.7234   -8.3697    3.7590 H   0  0  0  0  0  0  0  0  0  0  0  0
    6.0804   -7.1172    1.1010 H   0  0  0  0  0  0  0  0  0  0  0  0
    7.7368   -6.4851    0.9429 H   0  0  0  0  0  0  0  0  0  0  0  0
    6.3354   -5.4229    0.6660 H   0  0  0  0  0  0  0  0  0  0  0  0
    8.8679   -6.0368    2.9306 H   0  0  0  0  0  0  0  0  0  0  0  0
   10.1576   -5.6228    4.9029 H   0  0  0  0  0  0  0  0  0  0  0  0
    9.3208   -6.1061    6.3968 H   0  0  0  0  0  0  0  0  0  0  0  0
    9.4769   -4.3893    5.9916 H   0  0  0  0  0  0  0  0  0  0  0  0
    6.8074   -4.8790    6.5244 H   0  0  0  0  0  0  0  0  0  0  0  0
    4.4892   -4.6361    6.6024 H   0  0  0  0  0  0  0  0  0  0  0  0
    3.5804   -5.7380    5.5392 H   0  0  0  0  0  0  0  0  0  0  0  0
    3.7501   -4.0366    5.0974 H   0  0  0  0  0  0  0  0  0  0  0  0
  1  2  1  0
  1 49  1  0
  1 50  1  0
  1 51  1  0
  2  3  1  0
  2 25  2  0
  3  4  1  0
  3 21  1  0
  4  5  1  0
  4 24  2  0
  5  6  1  0
  5 15  2  0
  6  7  1  0
  6 52  1  0
  7  8  1  0
  7  9  1  0
  7 53  1  1
  8 54  1  0
  8 55  1  0
  8 56  1  0
  9 10  2  0
  9 14  1  0
 10 11  1  0
 10 57  1  0
 11 12  2  0
 11 58  1  0
 12 13  1  0
 12 59  1  0
 13 14  2  0
 13 60  1  0
 14 61  1  0
 15 16  1  0
 15 20  1  0
 16 17  2  0
 16 62  1  0
 17 18  1  0
 17 63  1  0
 18 19  1  0
 18 20  2  0
 19 64  1  0
 19 65  1  0
 19 66  1  0
 20 21  1  0
 21 22  1  6
 21 23  1  0
 24 25  1  0
 24 67  1  0
 25 26  1  0
 26 27  1  0
 26 30  2  0
 27 28  2  0
 27 68  1  0
 28 29  1  0
 28 39  1  0
 29 30  1  0
 29 31  1  0
 30 69  1  0
 31 32  1  6
 31 33  1  0
 31 34  1  0
 34 35  2  0
 34 38  1  0
 35 36  1  0
 35 70  1  0
 36 37  2  0
 36 71  1  0
 37 38  1  0
 37 72  1  0
 38 39  2  0
 39 40  1  0
 40 41  2  0
 40 47  1  0
 41 42  1  0
 41 43  1  0
 42 73  1  0
 42 74  1  0
 42 75  1  0
 43 44  2  0
 43 76  1  0
 44 45  1  0
 44 46  1  0
 45 77  1  0
 45 78  1  0
 45 79  1  0
 46 47  2  0
 46 80  1  0
 47 48  1  0
 48 81  1  0
 48 82  1  0
 48 83  1  0
M  CHG  4  20   1  21  -1  31  -1  34   1
M  END

