
     RDKit          3D

 58 61  0  0  0  0  0  0  0  0999 V2000
   11.7770   -1.3669    1.9735 C   0  0  0  0  0  0  0  0  0  0  0  0
   10.8030   -0.8675    1.2086 C   0  0  0  0  0  0  0  0  0  0  0  0
    9.7560   -1.6913    0.5070 C   0  0  0  0  0  0  0  0  0  0  0  0
    8.4186   -1.2897    0.9171 N   0  0  0  0  0  0  0  0  0  0  0  0
    7.2612   -1.0944    0.2137 C   0  0  0  0  0  0  0  0  0  0  0  0
    6.2585   -0.7016    0.7937 O   0  0  0  0  0  0  0  0  0  0  0  0
    7.1555   -1.3838   -1.3035 C   0  0  2  0  0  0  0  0  0  0  0  0
    6.0631   -1.3723   -1.4098 H   0  0  0  0  0  0  0  0  0  0  0  0
    7.6446   -2.7697   -1.7682 C   0  0  0  0  0  0  0  0  0  0  0  0
    8.9059   -2.7785   -2.6027 C   0  0  0  0  0  0  0  0  0  0  0  0
    9.4318   -4.0126   -2.9975 C   0  0  0  0  0  0  0  0  0  0  0  0
   10.5755   -4.1111   -3.7892 C   0  0  0  0  0  0  0  0  0  0  0  0
   11.1278   -5.4427   -4.2147 C   0  0  1  0  0  0  0  0  0  0  0  0
   10.4534   -6.4727   -3.6729 F   0  0  0  0  0  0  0  0  0  0  0  0
   11.0833   -5.5995   -5.5538 F   0  0  0  0  0  0  0  0  0  0  0  0
   12.4219   -5.5821   -3.8606 F   0  0  0  0  0  0  0  0  0  0  0  0
   11.2054   -2.9331   -4.2056 C   0  0  0  0  0  0  0  0  0  0  0  0
   10.6987   -1.6954   -3.8295 C   0  0  0  0  0  0  0  0  0  0  0  0
    9.5494   -1.5815   -3.0079 C   0  0  0  0  0  0  0  0  0  0  0  0
    9.0731   -0.3342   -2.5719 N   0  0  0  0  0  0  0  0  0  0  0  0
    9.6043    0.8440   -3.2590 C   0  0  0  0  0  0  0  0  0  0  0  0
    9.1658    2.1702   -2.6454 C   0  0  0  0  0  0  0  0  0  0  0  0
    7.7291    2.2122   -2.4928 N   0  0  0  0  0  0  0  0  0  0  0  0
    7.0599    3.4507   -2.4067 C   0  0  0  0  0  0  0  0  0  0  0  0
    5.6522    3.4926   -2.4354 C   0  0  0  0  0  0  0  0  0  0  0  0
    4.9867    4.7182   -2.3807 C   0  0  0  0  0  0  0  0  0  0  0  0
    5.6838    5.9220   -2.3090 C   0  0  0  0  0  0  0  0  0  0  0  0
    7.0859    5.8923   -2.2820 C   0  0  0  0  0  0  0  0  0  0  0  0
    7.7065    7.0992   -2.2028 O   0  0  0  0  0  0  0  0  0  0  0  0
    9.1119    7.1622   -2.1698 C   0  0  0  0  0  0  0  0  0  0  0  0
    7.7706    4.6675   -2.3202 C   0  0  0  0  0  0  0  0  0  0  0  0
    7.2984    1.1191   -1.6357 C   0  0  0  0  0  0  0  0  0  0  0  0
    7.6410   -0.2478   -2.2362 C   0  0  2  0  0  0  0  0  0  0  0  0
    7.0600   -0.3439   -3.1779 H   0  0  0  0  0  0  0  0  0  0  0  0
   12.5205   -0.7209    2.4483 H   0  0  0  0  0  0  0  0  0  0  0  0
   11.8732   -2.4441    2.1475 H   0  0  0  0  0  0  0  0  0  0  0  0
   10.7260    0.2167    1.0578 H   0  0  0  0  0  0  0  0  0  0  0  0
    9.9345   -2.7651    0.7027 H   0  0  0  0  0  0  0  0  0  0  0  0
    9.8495   -1.5320   -0.5734 H   0  0  0  0  0  0  0  0  0  0  0  0
    8.2851   -1.1190    1.9110 H   0  0  0  0  0  0  0  0  0  0  0  0
    6.8422   -3.2363   -2.3643 H   0  0  0  0  0  0  0  0  0  0  0  0
    7.7739   -3.4343   -0.8978 H   0  0  0  0  0  0  0  0  0  0  0  0
    8.9266   -4.9253   -2.6735 H   0  0  0  0  0  0  0  0  0  0  0  0
   12.0972   -2.9786   -4.8347 H   0  0  0  0  0  0  0  0  0  0  0  0
   11.2153   -0.8071   -4.1849 H   0  0  0  0  0  0  0  0  0  0  0  0
    9.3086    0.8311   -4.3284 H   0  0  0  0  0  0  0  0  0  0  0  0
   10.7020    0.8154   -3.2200 H   0  0  0  0  0  0  0  0  0  0  0  0
    9.4965    2.9658   -3.3274 H   0  0  0  0  0  0  0  0  0  0  0  0
    9.6867    2.3245   -1.6736 H   0  0  0  0  0  0  0  0  0  0  0  0
    5.0775    2.5705   -2.5294 H   0  0  0  0  0  0  0  0  0  0  0  0
    3.8939    4.7319   -2.4096 H   0  0  0  0  0  0  0  0  0  0  0  0
    5.1751    6.8865   -2.2747 H   0  0  0  0  0  0  0  0  0  0  0  0
    9.3773    8.2270   -2.1190 H   0  0  0  0  0  0  0  0  0  0  0  0
    9.5680    6.7256   -3.0773 H   0  0  0  0  0  0  0  0  0  0  0  0
    9.5293    6.6504   -1.2831 H   0  0  0  0  0  0  0  0  0  0  0  0
    8.8559    4.6580   -2.2617 H   0  0  0  0  0  0  0  0  0  0  0  0
    6.2184    1.1592   -1.4585 H   0  0  0  0  0  0  0  0  0  0  0  0
    7.7847    1.2105   -0.6421 H   0  0  0  0  0  0  0  0  0  0  0  0
  1  2  2  0
  1 35  1  0
  1 36  1  0
  2  3  1  0
  2 37  1  0
  3  4  1  0
  3 38  1  0
  3 39  1  0
  4  5  1  0
  4 40  1  0
  5  6  2  0
  5  7  1  0
  7  8  1  6
  7  9  1  0
  7 33  1  0
  9 10  1  0
  9 41  1  0
  9 42  1  0
 10 11  1  0
 10 19  2  0
 11 12  2  0
 11 43  1  0
 12 13  1  0
 12 17  1  0
 13 14  1  1
 13 15  1  0
 13 16  1  0
 17 18  2  0
 17 44  1  0
 18 19  1  0
 18 45  1  0
 19 20  1  0
 20 21  1  0
 20 33  1  0
 21 22  1  0
 21 46  1  0
 21 47  1  0
 22 23  1  0
 22 48  1  0
 22 49  1  0
 23 24  1  0
 23 32  1  0
 24 25  2  0
 24 31  1  0
 25 26  1  0
 25 50  1  0
 26 27  2  0
 26 51  1  0
 27 28  1  0
 27 52  1  0
 28 29  1  0
 28 31  2  0
 29 30  1  0
 30 53  1  0
 30 54  1  0
 30 55  1  0
 31 56  1  0
 32 33  1  0
 32 57  1  0
 32 58  1  0
 33 34  1  6
M  END

