
     RDKit          3D

 41 43  0  0  0  0  0  0  0  0999 V2000
    9.2555   -0.9604   -6.1306 N   0  0  0  0  0  0  0  0  0  0  0  0
    9.3331   -2.0038   -4.8010 S   0  0  1  0  0  0  0  0  0  0  0  0
   10.1898   -3.1166   -5.2168 O   0  0  0  0  0  0  0  0  0  0  0  0
    9.6117   -1.2032   -3.6055 O   0  0  0  0  0  0  0  0  0  0  0  0
    7.6540   -2.6186   -4.6581 C   0  0  0  0  0  0  0  0  0  0  0  0
    7.2380   -3.6735   -5.4785 C   0  0  0  0  0  0  0  0  0  0  0  0
    5.9337   -4.1489   -5.3632 C   0  0  0  0  0  0  0  0  0  0  0  0
    5.0450   -3.5859   -4.4280 C   0  0  0  0  0  0  0  0  0  0  0  0
    3.6318   -4.1295   -4.3035 C   0  0  0  0  0  0  0  0  0  0  0  0
    3.5636   -5.4840   -3.7815 N   0  0  0  0  0  0  0  0  0  0  0  0
    3.4824   -6.5808   -4.6030 C   0  0  0  0  0  0  0  0  0  0  0  0
    3.4291   -6.4745   -5.8253 O   0  0  0  0  0  0  0  0  0  0  0  0
    3.4510   -7.8869   -3.8999 C   0  0  0  0  0  0  0  0  0  0  0  0
    3.3665   -9.0273   -4.6229 C   0  0  0  0  0  0  0  0  0  0  0  0
    3.3187  -10.3723   -4.1249 C   0  0  0  0  0  0  0  0  0  0  0  0
    3.3330  -10.9098   -2.8288 C   0  0  0  0  0  0  0  0  0  0  0  0
    3.2691  -12.2524   -2.8215 N   0  0  0  0  0  0  0  0  0  0  0  0
    3.2123  -12.6168   -4.1056 C   0  0  0  0  0  0  0  0  0  0  0  0
    3.1334  -13.9030   -4.6864 C   0  0  0  0  0  0  0  0  0  0  0  0
    3.0855  -14.0263   -6.0578 C   0  0  0  0  0  0  0  0  0  0  0  0
    3.1158  -12.8643   -6.8800 C   0  0  0  0  0  0  0  0  0  0  0  0
    3.1925  -11.6172   -6.3164 C   0  0  0  0  0  0  0  0  0  0  0  0
    3.2398  -11.4950   -4.9509 N   0  0  0  0  0  0  0  0  0  0  0  0
    5.4904   -2.5378   -3.6122 C   0  0  0  0  0  0  0  0  0  0  0  0
    6.7956   -2.0476   -3.7192 C   0  0  0  0  0  0  0  0  0  0  0  0
   10.0007   -1.2000   -6.7852 H   0  0  0  0  0  0  0  0  0  0  0  0
    9.3168    0.0111   -5.8259 H   0  0  0  0  0  0  0  0  0  0  0  0
    7.9366   -4.1161   -6.1909 H   0  0  0  0  0  0  0  0  0  0  0  0
    5.5868   -4.9672   -5.9992 H   0  0  0  0  0  0  0  0  0  0  0  0
    3.1595   -4.1597   -5.2962 H   0  0  0  0  0  0  0  0  0  0  0  0
    3.0322   -3.4660   -3.6603 H   0  0  0  0  0  0  0  0  0  0  0  0
    3.7253   -5.6270   -2.7918 H   0  0  0  0  0  0  0  0  0  0  0  0
    3.4924   -7.9020   -2.8065 H   0  0  0  0  0  0  0  0  0  0  0  0
    3.3304   -8.8784   -5.7079 H   0  0  0  0  0  0  0  0  0  0  0  0
    3.3884  -10.3376   -1.9019 H   0  0  0  0  0  0  0  0  0  0  0  0
    3.1132  -14.7634   -4.0166 H   0  0  0  0  0  0  0  0  0  0  0  0
    3.0247  -15.0135   -6.5203 H   0  0  0  0  0  0  0  0  0  0  0  0
    3.0788  -12.9497   -7.9670 H   0  0  0  0  0  0  0  0  0  0  0  0
    3.2193  -10.6957   -6.8979 H   0  0  0  0  0  0  0  0  0  0  0  0
    4.8107   -2.0956   -2.8779 H   0  0  0  0  0  0  0  0  0  0  0  0
    7.1550   -1.2423   -3.0764 H   0  0  0  0  0  0  0  0  0  0  0  0
  2  1  1  6
  1 26  1  0
  1 27  1  0
  2  3  2  0
  2  4  2  0
  2  5  1  0
  5  6  2  0
  5 25  1  0
  6  7  1  0
  6 28  1  0
  7  8  2  0
  7 29  1  0
  8  9  1  0
  8 24  1  0
  9 10  1  0
  9 30  1  0
  9 31  1  0
 10 11  1  0
 10 32  1  0
 11 12  2  0
 11 13  1  0
 13 14  2  0
 13 33  1  0
 14 15  1  0
 14 34  1  0
 15 16  2  0
 15 23  1  0
 16 17  1  0
 16 35  1  0
 17 18  2  0
 18 19  1  0
 18 23  1  0
 19 20  2  0
 19 36  1  0
 20 21  1  0
 20 37  1  0
 21 22  2  0
 21 38  1  0
 22 23  1  0
 22 39  1  0
 24 25  2  0
 24 40  1  0
 25 41  1  0
M  END

