
     RDKit          3D

 35 35  0  0  0  0  0  0  0  0999 V2000
    3.9617    2.9109   -0.9585 C   0  0  0  0  0  0  0  0  0  0  0  0
    4.1101    1.5884   -0.7843 C   0  0  0  0  0  0  0  0  0  0  0  0
    3.7489    0.8637    0.4848 C   0  0  0  0  0  0  0  0  0  0  0  0
    4.6724    0.8133   -1.9428 C   0  0  0  0  0  0  0  0  0  0  0  0
    4.9928    1.2902   -3.0032 O   0  0  0  0  0  0  0  0  0  0  0  0
    4.7682   -0.5043   -1.6230 O   0  0  0  0  0  0  0  0  0  0  0  0
    5.2415   -1.5226   -2.4415 C   0  0  0  0  0  0  0  0  0  0  0  0
    5.7045   -1.3670   -3.7492 C   0  0  0  0  0  0  0  0  0  0  0  0
    6.1436   -2.5187   -4.4186 C   0  0  0  0  0  0  0  0  0  0  0  0
    6.1245   -3.7707   -3.8176 C   0  0  0  0  0  0  0  0  0  0  0  0
    5.6547   -3.9172   -2.4954 C   0  0  0  0  0  0  0  0  0  0  0  0
    5.6877   -5.1874   -2.0234 O   0  0  0  0  0  0  0  0  0  0  0  0
    5.2691   -5.6569   -0.7178 C   0  0  1  0  0  0  0  0  0  0  0  0
    3.7665   -5.4263   -0.4998 C   0  0  0  0  0  0  0  0  0  0  0  0
    5.5475   -7.1626   -0.8061 C   0  0  0  0  0  0  0  0  0  0  0  0
    6.1297   -5.0419    0.3955 C   0  0  0  0  0  0  0  0  0  0  0  0
    5.2123   -2.7777   -1.8114 C   0  0  0  0  0  0  0  0  0  0  0  0
    3.5596    3.5465   -0.1654 H   0  0  0  0  0  0  0  0  0  0  0  0
    4.2432    3.3774   -1.9052 H   0  0  0  0  0  0  0  0  0  0  0  0
    3.3514    1.5636    1.2338 H   0  0  0  0  0  0  0  0  0  0  0  0
    4.6249    0.3514    0.9140 H   0  0  0  0  0  0  0  0  0  0  0  0
    2.9928    0.0845    0.2972 H   0  0  0  0  0  0  0  0  0  0  0  0
    5.7213   -0.3911   -4.2229 H   0  0  0  0  0  0  0  0  0  0  0  0
    6.5110   -2.4238   -5.4438 H   0  0  0  0  0  0  0  0  0  0  0  0
    6.4674   -4.6636   -4.3431 H   0  0  0  0  0  0  0  0  0  0  0  0
    3.1938   -5.8457   -1.3409 H   0  0  0  0  0  0  0  0  0  0  0  0
    3.5036   -4.3646   -0.4049 H   0  0  0  0  0  0  0  0  0  0  0  0
    3.4430   -5.9340    0.4221 H   0  0  0  0  0  0  0  0  0  0  0  0
    4.9677   -7.6095   -1.6273 H   0  0  0  0  0  0  0  0  0  0  0  0
    5.2739   -7.6651    0.1339 H   0  0  0  0  0  0  0  0  0  0  0  0
    6.6148   -7.3414   -1.0043 H   0  0  0  0  0  0  0  0  0  0  0  0
    5.9599   -3.9650    0.5252 H   0  0  0  0  0  0  0  0  0  0  0  0
    7.1974   -5.1949    0.1762 H   0  0  0  0  0  0  0  0  0  0  0  0
    5.9030   -5.5333    1.3545 H   0  0  0  0  0  0  0  0  0  0  0  0
    4.8381   -2.8133   -0.7925 H   0  0  0  0  0  0  0  0  0  0  0  0
  1  2  2  0
  1 18  1  0
  1 19  1  0
  2  3  1  0
  2  4  1  0
  3 20  1  0
  3 21  1  0
  3 22  1  0
  4  5  2  0
  4  6  1  0
  6  7  1  0
  7  8  2  0
  7 17  1  0
  8  9  1  0
  8 23  1  0
  9 10  2  0
  9 24  1  0
 10 11  1  0
 10 25  1  0
 11 12  1  0
 11 17  2  0
 13 12  1  6
 13 14  1  0
 13 15  1  0
 13 16  1  0
 14 26  1  0
 14 27  1  0
 14 28  1  0
 15 29  1  0
 15 30  1  0
 15 31  1  0
 16 32  1  0
 16 33  1  0
 16 34  1  0
 17 35  1  0
M  END

