
     RDKit          3D

 55 58  0  0  0  0  0  0  0  0999 V2000
    4.3011    5.2592   -4.7011 C   0  0  0  0  0  0  0  0  0  0  0  0
    4.6649    3.7742   -4.6022 C   0  0  1  0  0  0  0  0  0  0  0  0
    3.5403    2.9449   -3.9739 C   0  0  0  0  0  0  0  0  0  0  0  0
    5.0506    3.2166   -5.9733 C   0  0  0  0  0  0  0  0  0  0  0  0
    5.9000    3.6121   -3.8260 O   0  0  0  0  0  0  0  0  0  0  0  0
    5.9877    3.9879   -2.5354 C   0  0  0  0  0  0  0  0  0  0  0  0
    5.1046    4.4886   -1.8682 O   0  0  0  0  0  0  0  0  0  0  0  0
    7.2487    3.7161   -2.0683 N   0  0  0  0  0  0  0  0  0  0  0  0
    7.6560    4.0318   -0.7133 C   0  0  2  0  0  0  0  0  0  0  0  0
    6.7774    4.4866   -0.2384 H   0  0  0  0  0  0  0  0  0  0  0  0
    8.8950    4.9459   -0.6635 C   0  0  0  0  0  0  0  0  0  0  0  0
   10.0616    3.9700   -0.8316 C   0  0  0  0  0  0  0  0  0  0  0  0
    9.5914    2.7643   -0.1421 N   0  0  0  0  0  0  0  0  0  0  0  0
   10.3268    1.6026   -0.1407 C   0  0  1  0  0  0  0  0  0  0  0  0
    9.7886    0.4581    0.7012 C   0  0  0  0  0  0  0  0  0  0  0  0
   10.7958    0.8276   -1.9837 S   0  0  0  0  0  0  0  0  0  0  0  0
   12.2634    1.2801   -1.1844 C   0  0  0  0  0  0  0  0  0  0  0  0
   13.5914    1.1550   -1.5260 C   0  0  0  0  0  0  0  0  0  0  0  0
   13.9498    0.5631   -2.8499 C   0  0  0  0  0  0  0  0  0  0  0  0
   13.0998    0.1889   -3.6299 O   0  0  0  0  0  0  0  0  0  0  0  0
   15.2514    0.4812   -3.1059 O   0  0  0  0  0  0  0  0  0  0  0  0
   14.5778    1.6110   -0.5791 C   0  0  0  0  0  0  0  0  0  0  0  0
   15.8010    1.5443   -0.7937 O   0  0  0  0  0  0  0  0  0  0  0  0
   14.0671    2.1797    0.7018 C   0  0  0  0  0  0  0  0  0  0  0  0
   15.0305    2.6186    1.6202 C   0  0  0  0  0  0  0  0  0  0  0  0
   14.6263    3.1587    2.8251 C   0  0  0  0  0  0  0  0  0  0  0  0
   15.5301    3.5803    3.7147 F   0  0  0  0  0  0  0  0  0  0  0  0
   13.2731    3.2774    3.1377 C   0  0  0  0  0  0  0  0  0  0  0  0
   12.3046    2.8491    2.2315 C   0  0  0  0  0  0  0  0  0  0  0  0
   10.6470    3.0759    2.7551 Cl  0  0  0  0  0  0  0  0  0  0  0  0
   12.6703    2.2789    0.9838 C   0  0  0  0  0  0  0  0  0  0  0  0
   11.8035    1.8148   -0.0137 N   0  0  0  0  0  0  0  0  0  0  0  0
    8.1369    2.7878    0.0638 C   0  0  0  0  0  0  0  0  0  0  0  0
    3.4381    5.3856   -5.3733 H   0  0  0  0  0  0  0  0  0  0  0  0
    5.1437    5.8332   -5.1177 H   0  0  0  0  0  0  0  0  0  0  0  0
    4.0442    5.6698   -3.7164 H   0  0  0  0  0  0  0  0  0  0  0  0
    2.6479    2.9820   -4.6179 H   0  0  0  0  0  0  0  0  0  0  0  0
    3.2744    3.3280   -2.9805 H   0  0  0  0  0  0  0  0  0  0  0  0
    3.8479    1.8916   -3.8793 H   0  0  0  0  0  0  0  0  0  0  0  0
    4.1965    3.2804   -6.6643 H   0  0  0  0  0  0  0  0  0  0  0  0
    5.3555    2.1623   -5.8918 H   0  0  0  0  0  0  0  0  0  0  0  0
    5.8894    3.7857   -6.4017 H   0  0  0  0  0  0  0  0  0  0  0  0
    7.9047    3.3032   -2.7222 H   0  0  0  0  0  0  0  0  0  0  0  0
    8.9532    5.4316    0.3236 H   0  0  0  0  0  0  0  0  0  0  0  0
    8.8697    5.7293   -1.4331 H   0  0  0  0  0  0  0  0  0  0  0  0
   10.9954    4.3456   -0.3866 H   0  0  0  0  0  0  0  0  0  0  0  0
   10.2698    3.7506   -1.8980 H   0  0  0  0  0  0  0  0  0  0  0  0
    8.8234    0.1104    0.3086 H   0  0  0  0  0  0  0  0  0  0  0  0
    9.6516    0.7768    1.7447 H   0  0  0  0  0  0  0  0  0  0  0  0
   10.4874   -0.3874    0.6684 H   0  0  0  0  0  0  0  0  0  0  0  0
   15.7490    0.8478   -2.3244 H   0  0  0  0  0  0  0  0  0  0  0  0
   16.0838    2.5203    1.3551 H   0  0  0  0  0  0  0  0  0  0  0  0
   12.9719    3.7087    4.0924 H   0  0  0  0  0  0  0  0  0  0  0  0
    7.8979    2.8729    1.1394 H   0  0  0  0  0  0  0  0  0  0  0  0
    7.6438    1.8823   -0.3211 H   0  0  0  0  0  0  0  0  0  0  0  0
  1  2  1  0
  1 34  1  0
  1 35  1  0
  1 36  1  0
  2  3  1  0
  2  4  1  0
  2  5  1  1
  3 37  1  0
  3 38  1  0
  3 39  1  0
  4 40  1  0
  4 41  1  0
  4 42  1  0
  5  6  1  0
  6  7  2  0
  6  8  1  0
  8  9  1  0
  8 43  1  0
  9 10  1  1
  9 11  1  0
  9 33  1  0
 11 12  1  0
 11 44  1  0
 11 45  1  0
 12 13  1  0
 12 46  1  0
 12 47  1  0
 13 14  1  0
 13 33  1  0
 14 15  1  1
 14 16  1  0
 14 32  1  0
 15 48  1  0
 15 49  1  0
 15 50  1  0
 16 17  2  0
 17 18  1  0
 17 32  1  0
 18 19  1  0
 18 22  2  0
 19 20  2  0
 19 21  1  0
 21 51  1  0
 22 23  1  0
 22 24  1  0
 24 25  2  0
 24 31  1  0
 25 26  1  0
 25 52  1  0
 26 27  1  0
 26 28  2  0
 28 29  1  0
 28 53  1  0
 29 30  1  0
 29 31  2  0
 31 32  1  0
 33 54  1  0
 33 55  1  0
M  CHG  2  16   1  23  -1
M  END

