
     RDKit          3D

 43 44  0  0  0  0  0  0  0  0999 V2000
    6.3672   -6.5817   -0.7230 C   0  0  0  0  0  0  0  0  0  0  0  0
    5.6563   -6.1812    0.5706 C   0  0  0  0  0  0  0  0  0  0  0  0
    6.4824   -5.3140    1.5459 C   0  0  1  0  0  0  0  0  0  0  0  0
    7.7357   -6.0092    2.0819 C   0  0  0  0  0  0  0  0  0  0  0  0
    6.8551   -4.0271    0.9595 N   0  0  0  0  0  0  0  0  0  0  0  0
    6.0048   -2.9716    0.9342 C   0  0  0  0  0  0  0  0  0  0  0  0
    4.8820   -2.9746    1.4147 O   0  0  0  0  0  0  0  0  0  0  0  0
    6.5637   -1.7039    0.2695 C   0  0  0  0  0  0  0  0  0  0  0  0
    6.5714   -1.7313   -1.5706 S   0  0  0  0  0  0  0  0  0  0  0  0
    8.1310   -2.4698   -1.8941 C   0  0  0  0  0  0  0  0  0  0  0  0
    8.8891   -3.0947   -1.0442 N   0  0  0  0  0  0  0  0  0  0  0  0
   10.0563   -3.5630   -1.5662 N   0  0  0  0  0  0  0  0  0  0  0  0
   10.1872   -3.3059   -2.8362 C   0  0  0  0  0  0  0  0  0  0  0  0
   11.2340   -3.6591   -3.6408 N   0  0  0  0  0  0  0  0  0  0  0  0
   12.4018   -4.3745   -3.3238 C   0  0  0  0  0  0  0  0  0  0  0  0
   12.6887   -4.8590   -2.0351 C   0  0  0  0  0  0  0  0  0  0  0  0
   13.8744   -5.5597   -1.8081 C   0  0  0  0  0  0  0  0  0  0  0  0
   14.7715   -5.7794   -2.8513 C   0  0  0  0  0  0  0  0  0  0  0  0
   15.9828   -6.4303   -2.5983 O   0  0  0  0  0  0  0  0  0  0  0  0
   16.0336   -7.7717   -2.7526 C   0  0  1  0  0  0  0  0  0  0  0  0
   15.1719   -8.4104   -1.9466 F   0  0  0  0  0  0  0  0  0  0  0  0
   15.7488   -8.1505   -4.0093 F   0  0  0  0  0  0  0  0  0  0  0  0
   17.2635   -8.1704   -2.4597 F   0  0  0  0  0  0  0  0  0  0  0  0
   14.5019   -5.3011   -4.1342 C   0  0  0  0  0  0  0  0  0  0  0  0
   13.3209   -4.6024   -4.3665 C   0  0  0  0  0  0  0  0  0  0  0  0
    8.8199   -2.3986   -3.5192 S   0  0  0  0  0  0  0  0  0  0  0  0
    5.6897   -7.1463   -1.3829 H   0  0  0  0  0  0  0  0  0  0  0  0
    7.2473   -7.2186   -0.5369 H   0  0  0  0  0  0  0  0  0  0  0  0
    6.7076   -5.6954   -1.2825 H   0  0  0  0  0  0  0  0  0  0  0  0
    5.3304   -7.0856    1.1149 H   0  0  0  0  0  0  0  0  0  0  0  0
    4.7377   -5.6203    0.3329 H   0  0  0  0  0  0  0  0  0  0  0  0
    5.8175   -5.0769    2.3917 H   0  0  0  0  0  0  0  0  0  0  0  0
    8.4708   -6.2016    1.2830 H   0  0  0  0  0  0  0  0  0  0  0  0
    7.4761   -6.9774    2.5374 H   0  0  0  0  0  0  0  0  0  0  0  0
    8.2274   -5.3904    2.8484 H   0  0  0  0  0  0  0  0  0  0  0  0
    7.7502   -3.9265    0.4762 H   0  0  0  0  0  0  0  0  0  0  0  0
    7.5840   -1.4694    0.6058 H   0  0  0  0  0  0  0  0  0  0  0  0
    5.8853   -0.8794    0.5229 H   0  0  0  0  0  0  0  0  0  0  0  0
   11.1616   -3.3664   -4.6069 H   0  0  0  0  0  0  0  0  0  0  0  0
   11.9835   -4.6810   -1.2261 H   0  0  0  0  0  0  0  0  0  0  0  0
   14.1089   -5.9367   -0.8113 H   0  0  0  0  0  0  0  0  0  0  0  0
   15.2172   -5.4754   -4.9392 H   0  0  0  0  0  0  0  0  0  0  0  0
   13.1091   -4.2262   -5.3717 H   0  0  0  0  0  0  0  0  0  0  0  0
  1  2  1  0
  1 27  1  0
  1 28  1  0
  1 29  1  0
  2  3  1  0
  2 30  1  0
  2 31  1  0
  3  4  1  0
  3  5  1  0
  3 32  1  1
  4 33  1  0
  4 34  1  0
  4 35  1  0
  5  6  1  0
  5 36  1  0
  6  7  2  0
  6  8  1  0
  8  9  1  0
  8 37  1  0
  8 38  1  0
  9 10  1  0
 10 11  2  0
 10 26  1  0
 11 12  1  0
 12 13  2  0
 13 14  1  0
 13 26  1  0
 14 15  1  0
 14 39  1  0
 15 16  2  0
 15 25  1  0
 16 17  1  0
 16 40  1  0
 17 18  2  0
 17 41  1  0
 18 19  1  0
 18 24  1  0
 19 20  1  0
 20 21  1  1
 20 22  1  0
 20 23  1  0
 24 25  2  0
 24 42  1  0
 25 43  1  0
M  END

