
     RDKit          3D

 99 99  0  0  0  0  0  0  0  0999 V2000
    1.7999   -0.2608    0.3928 C   0  0  0  0  0  0  0  0  0  0  0  0
    3.2489   -0.0663    0.8491 C   0  0  0  0  0  0  0  0  0  0  0  0
    4.3459   -0.2848   -0.2184 C   0  0  2  0  0  0  0  0  0  0  0  0
    5.3083   -0.0417    0.2573 H   0  0  0  0  0  0  0  0  0  0  0  0
    4.1785    0.6605   -1.4151 C   0  0  0  0  0  0  0  0  0  0  0  0
    4.4485   -1.7970   -0.6021 C   0  0  2  0  0  0  0  0  0  0  0  0
    3.4366   -2.1158   -0.8993 H   0  0  0  0  0  0  0  0  0  0  0  0
    4.8702   -2.6722    0.4838 N   0  0  0  0  0  0  0  0  0  0  0  0
    5.1868   -2.0628   -1.9327 C   0  0  0  0  0  0  0  0  0  0  0  0
    4.5497   -1.8933   -2.9618 O   0  0  0  0  0  0  0  0  0  0  0  0
    6.4815   -2.6227   -1.9931 N   0  0  0  0  0  0  0  0  0  0  0  0
    7.3915   -2.3420   -0.9577 C   0  0  0  0  0  0  0  0  0  0  0  0
    7.2071   -1.3916   -0.2197 O   0  0  0  0  0  0  0  0  0  0  0  0
    8.6960   -3.1672   -0.8243 C   0  0  1  0  0  0  0  0  0  0  0  0
    8.5756   -4.1545   -1.2894 H   0  0  0  0  0  0  0  0  0  0  0  0
    9.7117   -2.4866   -1.6414 N   0  0  0  0  0  0  0  0  0  0  0  0
   10.1791   -1.2026   -1.4848 C   0  0  0  0  0  0  0  0  0  0  0  0
   10.5017   -0.5139   -2.4481 O   0  0  0  0  0  0  0  0  0  0  0  0
   10.2886   -0.8344   -0.2088 O   0  0  0  0  0  0  0  0  0  0  0  0
   10.6542    0.5330    0.1948 C   0  0  1  0  0  0  0  0  0  0  0  0
    9.6551    1.5364   -0.3887 C   0  0  0  0  0  0  0  0  0  0  0  0
   10.5326    0.4779    1.7185 C   0  0  0  0  0  0  0  0  0  0  0  0
   12.0954    0.8282   -0.2298 C   0  0  0  0  0  0  0  0  0  0  0  0
    9.0548   -3.4360    0.6549 C   0  0  1  0  0  0  0  0  0  0  0  0
    9.0027   -2.4747    1.1863 H   0  0  0  0  0  0  0  0  0  0  0  0
    8.0101   -4.3919    1.2530 C   0  0  0  0  0  0  0  0  0  0  0  0
   10.4854   -3.9896    0.7854 C   0  0  0  0  0  0  0  0  0  0  0  0
   10.9561   -4.1826    2.2288 C   0  0  0  0  0  0  0  0  0  0  0  0
    6.8118   -3.5270   -3.1511 C   0  0  1  0  0  0  0  0  0  0  0  0
    7.8262   -3.8735   -2.9484 H   0  0  0  0  0  0  0  0  0  0  0  0
    5.8770   -4.7522   -3.1327 C   0  0  0  0  0  0  0  0  0  0  0  0
    6.1990   -5.8613   -4.1564 C   0  0  1  0  0  0  0  0  0  0  0  0
    7.6090   -6.4767   -4.0133 C   0  0  0  0  0  0  0  0  0  0  0  0
    7.7575   -7.3655   -2.7691 C   0  0  0  0  0  0  0  0  0  0  0  0
    6.6921   -8.4698   -2.7396 C   0  0  0  0  0  0  0  0  0  0  0  0
    5.2764   -7.8906   -2.8626 C   0  0  0  0  0  0  0  0  0  0  0  0
    5.1423   -6.9881   -4.0985 C   0  0  0  0  0  0  0  0  0  0  0  0
    6.9117   -2.8637   -4.5629 C   0  0  1  0  0  0  0  0  0  0  0  0
    7.4876   -3.5922   -5.1601 H   0  0  0  0  0  0  0  0  0  0  0  0
    5.6770   -2.7265   -5.2080 O   0  0  0  0  0  0  0  0  0  0  0  0
    7.7759   -1.5800   -4.5995 C   0  0  1  0  0  0  0  0  0  0  0  0
    7.4543   -0.9025   -3.7849 H   0  0  0  0  0  0  0  0  0  0  0  0
    9.1206   -2.0074   -4.3717 O   0  0  0  0  0  0  0  0  0  0  0  0
    7.6489   -0.8509   -5.9402 C   0  0  0  0  0  0  0  0  0  0  0  0
    8.5525    0.3834   -6.1176 C   0  0  1  0  0  0  0  0  0  0  0  0
    8.3963    0.9490   -7.5354 C   0  0  0  0  0  0  0  0  0  0  0  0
    8.2942    1.4706   -5.0649 C   0  0  0  0  0  0  0  0  0  0  0  0
    1.1029   -0.0802    1.2266 H   0  0  0  0  0  0  0  0  0  0  0  0
    1.6072   -1.2838    0.0285 H   0  0  0  0  0  0  0  0  0  0  0  0
    1.5267    0.4321   -0.4183 H   0  0  0  0  0  0  0  0  0  0  0  0
    3.4517   -0.7294    1.7077 H   0  0  0  0  0  0  0  0  0  0  0  0
    3.3658    0.9600    1.2384 H   0  0  0  0  0  0  0  0  0  0  0  0
    4.0168    1.6914   -1.0601 H   0  0  0  0  0  0  0  0  0  0  0  0
    3.3305    0.3818   -2.0584 H   0  0  0  0  0  0  0  0  0  0  0  0
    5.0756    0.6702   -2.0514 H   0  0  0  0  0  0  0  0  0  0  0  0
    4.0710   -2.9972    1.0215 H   0  0  0  0  0  0  0  0  0  0  0  0
    5.5089   -2.1966    1.1186 H   0  0  0  0  0  0  0  0  0  0  0  0
    9.6083   -2.6784   -2.6425 H   0  0  0  0  0  0  0  0  0  0  0  0
    8.6264    1.2235   -0.1542 H   0  0  0  0  0  0  0  0  0  0  0  0
    9.7614    1.6212   -1.4776 H   0  0  0  0  0  0  0  0  0  0  0  0
    9.8282    2.5280    0.0577 H   0  0  0  0  0  0  0  0  0  0  0  0
    9.5002    0.2394    2.0148 H   0  0  0  0  0  0  0  0  0  0  0  0
   10.8071    1.4500    2.1553 H   0  0  0  0  0  0  0  0  0  0  0  0
   11.2014   -0.2911    2.1341 H   0  0  0  0  0  0  0  0  0  0  0  0
   12.1910    0.8298   -1.3229 H   0  0  0  0  0  0  0  0  0  0  0  0
   12.7818    0.0743    0.1864 H   0  0  0  0  0  0  0  0  0  0  0  0
   12.3990    1.8146    0.1544 H   0  0  0  0  0  0  0  0  0  0  0  0
    6.9800   -4.0532    1.0638 H   0  0  0  0  0  0  0  0  0  0  0  0
    8.1333   -4.4851    2.3422 H   0  0  0  0  0  0  0  0  0  0  0  0
    8.1110   -5.4038    0.8219 H   0  0  0  0  0  0  0  0  0  0  0  0
   11.1766   -3.3039    0.2748 H   0  0  0  0  0  0  0  0  0  0  0  0
   10.5527   -4.9515    0.2430 H   0  0  0  0  0  0  0  0  0  0  0  0
   10.8858   -3.2409    2.7992 H   0  0  0  0  0  0  0  0  0  0  0  0
   12.0082   -4.5080    2.2568 H   0  0  0  0  0  0  0  0  0  0  0  0
   10.3664   -4.9411    2.7676 H   0  0  0  0  0  0  0  0  0  0  0  0
    4.8499   -4.4124   -3.3304 H   0  0  0  0  0  0  0  0  0  0  0  0
    5.8813   -5.1526   -2.1059 H   0  0  0  0  0  0  0  0  0  0  0  0
    6.1222   -5.4002   -5.1539 H   0  0  0  0  0  0  0  0  0  0  0  0
    8.3877   -5.6952   -4.0228 H   0  0  0  0  0  0  0  0  0  0  0  0
    7.8043   -7.0935   -4.9091 H   0  0  0  0  0  0  0  0  0  0  0  0
    7.6719   -6.7528   -1.8525 H   0  0  0  0  0  0  0  0  0  0  0  0
    8.7675   -7.8085   -2.7436 H   0  0  0  0  0  0  0  0  0  0  0  0
    6.7848   -9.0706   -1.8190 H   0  0  0  0  0  0  0  0  0  0  0  0
    6.8729   -9.1635   -3.5819 H   0  0  0  0  0  0  0  0  0  0  0  0
    5.0352   -7.3184   -1.9485 H   0  0  0  0  0  0  0  0  0  0  0  0
    4.5342   -8.7052   -2.9128 H   0  0  0  0  0  0  0  0  0  0  0  0
    4.1293   -6.5540   -4.1488 H   0  0  0  0  0  0  0  0  0  0  0  0
    5.2540   -7.6124   -5.0033 H   0  0  0  0  0  0  0  0  0  0  0  0
    5.0765   -2.3009   -4.5654 H   0  0  0  0  0  0  0  0  0  0  0  0
    9.6529   -1.2677   -4.0161 H   0  0  0  0  0  0  0  0  0  0  0  0
    6.5939   -0.5622   -6.0757 H   0  0  0  0  0  0  0  0  0  0  0  0
    7.8724   -1.5763   -6.7419 H   0  0  0  0  0  0  0  0  0  0  0  0
    9.6009    0.0494   -6.0099 H   0  0  0  0  0  0  0  0  0  0  0  0
    7.3659    1.3057   -7.7069 H   0  0  0  0  0  0  0  0  0  0  0  0
    8.6135    0.1855   -8.3000 H   0  0  0  0  0  0  0  0  0  0  0  0
    9.0764    1.7995   -7.7059 H   0  0  0  0  0  0  0  0  0  0  0  0
    7.2388    1.7948   -5.0805 H   0  0  0  0  0  0  0  0  0  0  0  0
    8.9171    2.3594   -5.2569 H   0  0  0  0  0  0  0  0  0  0  0  0
    8.5284    1.1274   -4.0450 H   0  0  0  0  0  0  0  0  0  0  0  0
  1  2  1  0
  1 48  1  0
  1 49  1  0
  1 50  1  0
  2  3  1  0
  2 51  1  0
  2 52  1  0
  3  4  1  1
  3  5  1  0
  3  6  1  0
  5 53  1  0
  5 54  1  0
  5 55  1  0
  6  7  1  6
  6  8  1  0
  6  9  1  0
  8 56  1  0
  8 57  1  0
  9 10  2  0
  9 11  1  0
 11 12  1  0
 11 29  1  0
 12 13  2  0
 12 14  1  0
 14 15  1  6
 14 16  1  0
 14 24  1  0
 16 17  1  0
 16 58  1  0
 17 18  2  0
 17 19  1  0
 20 19  1  6
 20 21  1  0
 20 22  1  0
 20 23  1  0
 21 59  1  0
 21 60  1  0
 21 61  1  0
 22 62  1  0
 22 63  1  0
 22 64  1  0
 23 65  1  0
 23 66  1  0
 23 67  1  0
 24 25  1  1
 24 26  1  0
 24 27  1  0
 26 68  1  0
 26 69  1  0
 26 70  1  0
 27 28  1  0
 27 71  1  0
 27 72  1  0
 28 73  1  0
 28 74  1  0
 28 75  1  0
 29 30  1  1
 29 31  1  0
 29 38  1  0
 31 32  1  0
 31 76  1  0
 31 77  1  0
 32 33  1  0
 32 37  1  0
 32 78  1  6
 33 34  1  0
 33 79  1  0
 33 80  1  0
 34 35  1  0
 34 81  1  0
 34 82  1  0
 35 36  1  0
 35 83  1  0
 35 84  1  0
 36 37  1  0
 36 85  1  0
 36 86  1  0
 37 87  1  0
 37 88  1  0
 38 39  1  6
 38 40  1  0
 38 41  1  0
 40 89  1  0
 41 42  1  1
 41 43  1  0
 41 44  1  0
 43 90  1  0
 44 45  1  0
 44 91  1  0
 44 92  1  0
 45 46  1  0
 45 47  1  0
 45 93  1  6
 46 94  1  0
 46 95  1  0
 46 96  1  0
 47 97  1  0
 47 98  1  0
 47 99  1  0
M  END

