
     RDKit          3D

 37 38  0  0  0  0  0  0  0  0999 V2000
    1.3260   -1.4965    3.1028 C   0  0  0  0  0  0  0  0  0  0  0  0
    1.7674   -1.1850    1.6693 C   0  0  0  0  0  0  0  0  0  0  0  0
    2.9728   -0.3720    1.5537 N   0  0  0  0  0  0  0  0  0  0  0  0
    2.8757    1.0884    1.4708 C   0  0  0  0  0  0  0  0  0  0  0  0
    3.0599    1.8180    2.8028 C   0  0  0  0  0  0  0  0  0  0  0  0
    4.2089   -0.9373    1.5635 C   0  0  0  0  0  0  0  0  0  0  0  0
    5.3209   -0.2456    1.4974 N   0  0  0  0  0  0  0  0  0  0  0  0
    6.4202   -1.0608    1.4803 C   0  0  0  0  0  0  0  0  0  0  0  0
    7.6532   -0.5175    1.3887 N   0  0  0  0  0  0  0  0  0  0  0  0
    6.1738   -2.4374    1.5537 C   0  0  0  0  0  0  0  0  0  0  0  0
    7.2099   -3.4521    1.6040 C   0  0  0  0  0  0  0  0  0  0  0  0
    8.4161   -3.1549    1.5653 O   0  0  0  0  0  0  0  0  0  0  0  0
    6.8295   -4.7639    1.6997 N   0  0  0  0  0  0  0  0  0  0  0  0
    7.8150   -5.8134    1.7462 C   0  0  0  0  0  0  0  0  0  0  0  0
    7.1287   -7.1524    1.7714 C   0  0  0  0  0  0  0  0  0  0  0  0
    5.8368   -7.3058    1.7769 N   0  0  0  0  0  0  0  0  0  0  0  0
    5.4815   -8.6317    1.8055 C   0  0  0  0  0  0  0  0  0  0  0  0
    6.5210   -9.5200    1.8229 C   0  0  0  0  0  0  0  0  0  0  0  0
    8.0256   -8.6588    1.8020 S   0  0  0  0  0  0  0  0  0  0  0  0
    4.4225   -2.6934    1.6384 S   0  0  0  0  0  0  0  0  0  0  0  0
    0.4338   -2.1432    3.0916 H   0  0  0  0  0  0  0  0  0  0  0  0
    1.0727   -0.5794    3.6562 H   0  0  0  0  0  0  0  0  0  0  0  0
    2.1203   -2.0234    3.6531 H   0  0  0  0  0  0  0  0  0  0  0  0
    0.9623   -0.6569    1.1333 H   0  0  0  0  0  0  0  0  0  0  0  0
    1.9335   -2.1262    1.1166 H   0  0  0  0  0  0  0  0  0  0  0  0
    1.8900    1.3215    1.0369 H   0  0  0  0  0  0  0  0  0  0  0  0
    3.6427    1.4326    0.7611 H   0  0  0  0  0  0  0  0  0  0  0  0
    2.2946    1.5296    3.5402 H   0  0  0  0  0  0  0  0  0  0  0  0
    2.9874    2.9069    2.6479 H   0  0  0  0  0  0  0  0  0  0  0  0
    4.0526    1.5995    3.2229 H   0  0  0  0  0  0  0  0  0  0  0  0
    7.7550    0.4846    1.4559 H   0  0  0  0  0  0  0  0  0  0  0  0
    8.4364   -1.1658    1.4548 H   0  0  0  0  0  0  0  0  0  0  0  0
    5.8575   -5.0564    1.7171 H   0  0  0  0  0  0  0  0  0  0  0  0
    8.4679   -5.7088    2.6338 H   0  0  0  0  0  0  0  0  0  0  0  0
    8.4971   -5.7506    0.8779 H   0  0  0  0  0  0  0  0  0  0  0  0
    4.4257   -8.9079    1.8125 H   0  0  0  0  0  0  0  0  0  0  0  0
    6.4885  -10.6077    1.8457 H   0  0  0  0  0  0  0  0  0  0  0  0
  1  2  1  0
  1 21  1  0
  1 22  1  0
  1 23  1  0
  2  3  1  0
  2 24  1  0
  2 25  1  0
  3  4  1  0
  3  6  1  0
  4  5  1  0
  4 26  1  0
  4 27  1  0
  5 28  1  0
  5 29  1  0
  5 30  1  0
  6  7  2  0
  6 20  1  0
  7  8  1  0
  8  9  1  0
  8 10  2  0
  9 31  1  0
  9 32  1  0
 10 11  1  0
 10 20  1  0
 11 12  2  0
 11 13  1  0
 13 14  1  0
 13 33  1  0
 14 15  1  0
 14 34  1  0
 14 35  1  0
 15 16  2  0
 15 19  1  0
 16 17  1  0
 17 18  2  0
 17 36  1  0
 18 19  1  0
 18 37  1  0
M  END

