
     RDKit          3D

 40 40  0  0  0  0  0  0  0  0999 V2000
    4.9079   -0.3993   -4.2397 C   0  0  0  0  0  0  0  0  0  0  0  0
    4.0098    0.7505   -3.7825 C   0  0  0  0  0  0  0  0  0  0  0  0
    3.5420    0.6594   -2.3250 C   0  0  0  0  0  0  0  0  0  0  0  0
    4.6144    0.7889   -1.3426 N   0  0  0  0  0  0  0  0  0  0  0  0
    5.3283   -0.2828   -0.9331 N   0  0  0  0  0  0  0  0  0  0  0  0
    6.1624    0.2356   -0.0484 C   0  0  0  0  0  0  0  0  0  0  0  0
    6.0258    1.5747    0.1353 N   0  0  0  0  0  0  0  0  0  0  0  0
    5.0463    1.9035   -0.7009 C   0  0  0  0  0  0  0  0  0  0  0  0
    4.4805    3.2813   -0.8840 C   0  0  0  0  0  0  0  0  0  0  0  0
    3.1523    3.4420   -0.2832 N   0  0  0  0  0  0  0  0  0  0  0  0
    3.1037    3.0291    1.1285 C   0  0  0  0  0  0  0  0  0  0  0  0
    3.8971    3.8656    2.1213 C   0  0  0  0  0  0  0  0  0  0  0  0
    5.2530    3.7402    2.1584 N   0  0  0  0  0  0  0  0  0  0  0  0
    3.2161    4.6825    2.8589 N   0  0  0  0  0  0  0  0  0  0  0  0
    4.0858    5.3986    3.7167 O   0  0  0  0  0  0  0  0  0  0  0  0
    2.5452    4.7614   -0.5829 C   0  0  1  0  0  0  0  0  0  0  0  0
    2.3698    4.9639   -2.0955 C   0  0  0  0  0  0  0  0  0  0  0  0
    1.1871    4.9325    0.1083 C   0  0  0  0  0  0  0  0  0  0  0  0
    5.2040   -0.2697   -5.2926 H   0  0  0  0  0  0  0  0  0  0  0  0
    4.3885   -1.3676   -4.1523 H   0  0  0  0  0  0  0  0  0  0  0  0
    5.8229   -0.4659   -3.6323 H   0  0  0  0  0  0  0  0  0  0  0  0
    3.1011    0.7881   -4.4085 H   0  0  0  0  0  0  0  0  0  0  0  0
    4.5215    1.7172   -3.9351 H   0  0  0  0  0  0  0  0  0  0  0  0
    3.0617   -0.3117   -2.1331 H   0  0  0  0  0  0  0  0  0  0  0  0
    2.8123    1.4485   -2.0933 H   0  0  0  0  0  0  0  0  0  0  0  0
    6.8894   -0.3754    0.4859 H   0  0  0  0  0  0  0  0  0  0  0  0
    4.4035    3.4813   -1.9613 H   0  0  0  0  0  0  0  0  0  0  0  0
    5.2271    3.9919   -0.4786 H   0  0  0  0  0  0  0  0  0  0  0  0
    3.4540    1.9871    1.1901 H   0  0  0  0  0  0  0  0  0  0  0  0
    2.0626    3.0254    1.4662 H   0  0  0  0  0  0  0  0  0  0  0  0
    5.7250    2.9741    1.6793 H   0  0  0  0  0  0  0  0  0  0  0  0
    5.7413    4.2614    2.8759 H   0  0  0  0  0  0  0  0  0  0  0  0
    3.4732    5.9260    4.2419 H   0  0  0  0  0  0  0  0  0  0  0  0
    3.2117    5.5704   -0.2089 H   0  0  0  0  0  0  0  0  0  0  0  0
    1.7490    4.1597   -2.5244 H   0  0  0  0  0  0  0  0  0  0  0  0
    3.3197    5.0005   -2.6487 H   0  0  0  0  0  0  0  0  0  0  0  0
    1.8610    5.9217   -2.2822 H   0  0  0  0  0  0  0  0  0  0  0  0
    0.5113    4.0997   -0.1498 H   0  0  0  0  0  0  0  0  0  0  0  0
    0.7186    5.8671   -0.2359 H   0  0  0  0  0  0  0  0  0  0  0  0
    1.2865    4.9947    1.1998 H   0  0  0  0  0  0  0  0  0  0  0  0
  1  2  1  0
  1 19  1  0
  1 20  1  0
  1 21  1  0
  2  3  1  0
  2 22  1  0
  2 23  1  0
  3  4  1  0
  3 24  1  0
  3 25  1  0
  4  5  1  0
  4  8  1  0
  5  6  2  0
  6  7  1  0
  6 26  1  0
  7  8  2  0
  8  9  1  0
  9 10  1  0
  9 27  1  0
  9 28  1  0
 10 11  1  0
 10 16  1  0
 11 12  1  0
 11 29  1  0
 11 30  1  0
 12 13  1  0
 12 14  2  0
 13 31  1  0
 13 32  1  0
 14 15  1  0
 15 33  1  0
 16 17  1  0
 16 18  1  0
 16 34  1  1
 17 35  1  0
 17 36  1  0
 17 37  1  0
 18 38  1  0
 18 39  1  0
 18 40  1  0
M  END

