
     RDKit          3D

 26 27  0  0  0  0  0  0  0  0999 V2000
    3.2060    0.4479    1.2520 N   0  0  0  0  0  0  0  0  0  0  0  0
    2.6208   -0.0971    0.0304 C   0  0  2  0  0  0  0  0  0  0  0  0
    1.5387   -0.2264    0.2131 H   0  0  0  0  0  0  0  0  0  0  0  0
    3.1892   -1.4485   -0.4323 C   0  0  0  0  0  0  0  0  0  0  0  0
    2.5723   -1.8822   -1.7661 C   0  0  0  0  0  0  0  0  0  0  0  0
    2.7308   -0.7922   -2.8244 C   0  0  0  0  0  0  0  0  0  0  0  0
    2.1947    0.4780   -2.3392 N   0  0  0  0  0  0  0  0  0  0  0  0
    1.8270    1.3966   -3.3109 C   0  0  0  0  0  0  0  0  0  0  0  0
    1.7294    1.1402   -4.6003 N   0  0  0  0  0  0  0  0  0  0  0  0
    1.2695    2.3029   -5.1784 C   0  0  0  0  0  0  0  0  0  0  0  0
    1.0964    3.2816   -4.2357 C   0  0  0  0  0  0  0  0  0  0  0  0
    1.4647    2.6895   -3.0310 N   0  0  0  0  0  0  0  0  0  0  0  0
    1.4229    3.1261   -2.1206 H   0  0  0  0  0  0  0  0  0  0  0  0
    2.7585    0.9492   -1.0843 C   0  0  0  0  0  0  0  0  0  0  0  0
    4.2245    0.4773    1.1694 H   0  0  0  0  0  0  0  0  0  0  0  0
    3.0082   -0.1665    2.0419 H   0  0  0  0  0  0  0  0  0  0  0  0
    3.0224   -2.2107    0.3486 H   0  0  0  0  0  0  0  0  0  0  0  0
    4.2859   -1.3461   -0.5459 H   0  0  0  0  0  0  0  0  0  0  0  0
    1.4981   -2.0947   -1.6264 H   0  0  0  0  0  0  0  0  0  0  0  0
    3.0402   -2.8125   -2.1280 H   0  0  0  0  0  0  0  0  0  0  0  0
    2.2026   -1.0442   -3.7521 H   0  0  0  0  0  0  0  0  0  0  0  0
    3.8046   -0.6809   -3.0922 H   0  0  0  0  0  0  0  0  0  0  0  0
    1.0962    2.3730   -6.2516 H   0  0  0  0  0  0  0  0  0  0  0  0
    0.7716    4.3169   -4.2941 H   0  0  0  0  0  0  0  0  0  0  0  0
    2.2443    1.8585   -0.7429 H   0  0  0  0  0  0  0  0  0  0  0  0
    3.8354    1.2147   -1.1985 H   0  0  0  0  0  0  0  0  0  0  0  0
  1  2  1  0
  1 15  1  0
  1 16  1  0
  2  3  1  1
  2  4  1  0
  2 14  1  0
  4  5  1  0
  4 17  1  0
  4 18  1  0
  5  6  1  0
  5 19  1  0
  5 20  1  0
  6  7  1  0
  6 21  1  0
  6 22  1  0
  7  8  1  0
  7 14  1  0
  8  9  2  0
  8 12  1  0
  9 10  1  0
 10 11  2  0
 10 23  1  0
 11 12  1  0
 11 24  1  0
 12 13  1  0
 14 25  1  0
 14 26  1  0
M  END

