
     RDKit          3D

 68 70  0  0  0  0  0  0  0  0999 V2000
    5.4724    0.9875   -3.5976 C   0  0  0  0  0  0  0  0  0  0  0  0
    4.2169    1.6454   -3.6468 O   0  0  0  0  0  0  0  0  0  0  0  0
    3.5322    1.7627   -2.4694 C   0  0  0  0  0  0  0  0  0  0  0  0
    3.3500    3.0213   -1.9005 C   0  0  0  0  0  0  0  0  0  0  0  0
    2.6041    3.2137   -0.7331 C   0  0  0  0  0  0  0  0  0  0  0  0
    2.0277    2.0996   -0.1082 C   0  0  0  0  0  0  0  0  0  0  0  0
    1.2615    2.1808    1.0705 N   0  0  0  0  0  0  0  0  0  0  0  0
    0.9395    3.2888    1.8259 C   0  0  0  0  0  0  0  0  0  0  0  0
    1.3027    4.4254    1.5633 O   0  0  0  0  0  0  0  0  0  0  0  0
    0.0917    2.9676    3.0119 C   0  0  0  0  0  0  0  0  0  0  0  0
   -0.3041    3.9537    3.8393 C   0  0  0  0  0  0  0  0  0  0  0  0
   -1.1323    3.8438    5.0422 C   0  0  0  0  0  0  0  0  0  0  0  0
   -1.6548    2.6248    5.5224 C   0  0  0  0  0  0  0  0  0  0  0  0
   -2.4359    2.5864    6.6710 C   0  0  0  0  0  0  0  0  0  0  0  0
   -2.7226    3.7616    7.3801 C   0  0  0  0  0  0  0  0  0  0  0  0
   -3.7025    3.6746    8.8115 Cl  0  0  0  0  0  0  0  0  0  0  0  0
   -2.2111    4.9853    6.9176 C   0  0  0  0  0  0  0  0  0  0  0  0
   -2.5374    6.4716    7.7606 Cl  0  0  0  0  0  0  0  0  0  0  0  0
   -1.4268    5.0156    5.7622 C   0  0  0  0  0  0  0  0  0  0  0  0
    2.2013    0.8168   -0.6693 C   0  0  0  0  0  0  0  0  0  0  0  0
    2.9395    0.6374   -1.8427 C   0  0  0  0  0  0  0  0  0  0  0  0
    3.1268   -0.5627   -2.4481 O   0  0  0  0  0  0  0  0  0  0  0  0
    2.5065   -1.7268   -1.9256 C   0  0  0  0  0  0  0  0  0  0  0  0
    2.8389   -2.8908   -2.8591 C   0  0  0  0  0  0  0  0  0  0  0  0
    2.2266   -4.1446   -2.4049 N   0  0  0  0  0  0  0  0  0  0  0  0
    1.1113   -4.6497   -3.2871 C   0  0  1  0  0  0  0  0  0  0  0  0
    0.0872   -5.4970   -2.4903 C   0  0  0  0  0  0  0  0  0  0  0  0
    0.2724   -3.4829   -3.8564 C   0  0  0  0  0  0  0  0  0  0  0  0
    1.6990   -5.4654   -4.4673 C   0  0  0  0  0  0  0  0  0  0  0  0
    2.6724   -6.5593   -4.0157 C   0  0  0  0  0  0  0  0  0  0  0  0
    3.7695   -5.9886   -3.1107 C   0  0  0  0  0  0  0  0  0  0  0  0
    3.2094   -5.1784   -1.9132 C   0  0  1  0  0  0  0  0  0  0  0  0
    4.3884   -4.5194   -1.1616 C   0  0  0  0  0  0  0  0  0  0  0  0
    2.5725   -6.1222   -0.8618 C   0  0  0  0  0  0  0  0  0  0  0  0
    5.8934    1.0309   -4.6124 H   0  0  0  0  0  0  0  0  0  0  0  0
    5.3724   -0.0674   -3.2947 H   0  0  0  0  0  0  0  0  0  0  0  0
    6.1651    1.4980   -2.9030 H   0  0  0  0  0  0  0  0  0  0  0  0
    3.8054    3.8743   -2.4087 H   0  0  0  0  0  0  0  0  0  0  0  0
    2.4684    4.2029   -0.3047 H   0  0  0  0  0  0  0  0  0  0  0  0
    0.8953    1.2970    1.4024 H   0  0  0  0  0  0  0  0  0  0  0  0
   -0.1945    1.9250    3.1845 H   0  0  0  0  0  0  0  0  0  0  0  0
    0.0387    4.9597    3.5733 H   0  0  0  0  0  0  0  0  0  0  0  0
   -1.4506    1.6920    4.9939 H   0  0  0  0  0  0  0  0  0  0  0  0
   -2.8387    1.6417    7.0397 H   0  0  0  0  0  0  0  0  0  0  0  0
   -1.0394    5.9768    5.4198 H   0  0  0  0  0  0  0  0  0  0  0  0
    1.7429   -0.0437   -0.1797 H   0  0  0  0  0  0  0  0  0  0  0  0
    1.4128   -1.5864   -1.8660 H   0  0  0  0  0  0  0  0  0  0  0  0
    2.8718   -1.9375   -0.9042 H   0  0  0  0  0  0  0  0  0  0  0  0
    3.9307   -2.9617   -2.9342 H   0  0  0  0  0  0  0  0  0  0  0  0
    2.5216   -2.6078   -3.8700 H   0  0  0  0  0  0  0  0  0  0  0  0
   -0.1555   -5.0026   -1.5386 H   0  0  0  0  0  0  0  0  0  0  0  0
    0.4205   -6.5156   -2.2712 H   0  0  0  0  0  0  0  0  0  0  0  0
   -0.8410   -5.5922   -3.0739 H   0  0  0  0  0  0  0  0  0  0  0  0
   -0.1354   -2.8552   -3.0489 H   0  0  0  0  0  0  0  0  0  0  0  0
   -0.5795   -3.9005   -4.4126 H   0  0  0  0  0  0  0  0  0  0  0  0
    0.8168   -2.8376   -4.5574 H   0  0  0  0  0  0  0  0  0  0  0  0
    2.2327   -4.7675   -5.1379 H   0  0  0  0  0  0  0  0  0  0  0  0
    0.8801   -5.9012   -5.0653 H   0  0  0  0  0  0  0  0  0  0  0  0
    3.1293   -7.0387   -4.8976 H   0  0  0  0  0  0  0  0  0  0  0  0
    2.1263   -7.3619   -3.4915 H   0  0  0  0  0  0  0  0  0  0  0  0
    4.4130   -5.3188   -3.7100 H   0  0  0  0  0  0  0  0  0  0  0  0
    4.4247   -6.7968   -2.7424 H   0  0  0  0  0  0  0  0  0  0  0  0
    5.0415   -3.9086   -1.7980 H   0  0  0  0  0  0  0  0  0  0  0  0
    5.0206   -5.3108   -0.7335 H   0  0  0  0  0  0  0  0  0  0  0  0
    4.0291   -3.8951   -0.3287 H   0  0  0  0  0  0  0  0  0  0  0  0
    1.9223   -6.8931   -1.2855 H   0  0  0  0  0  0  0  0  0  0  0  0
    1.9872   -5.5403   -0.1352 H   0  0  0  0  0  0  0  0  0  0  0  0
    3.3681   -6.6519   -0.3163 H   0  0  0  0  0  0  0  0  0  0  0  0
  1  2  1  0
  1 35  1  0
  1 36  1  0
  1 37  1  0
  2  3  1  0
  3  4  2  0
  3 21  1  0
  4  5  1  0
  4 38  1  0
  5  6  2  0
  5 39  1  0
  6  7  1  0
  6 20  1  0
  7  8  1  0
  7 40  1  0
  8  9  2  0
  8 10  1  0
 10 11  2  0
 10 41  1  0
 11 12  1  0
 11 42  1  0
 12 13  2  0
 12 19  1  0
 13 14  1  0
 13 43  1  0
 14 15  2  0
 14 44  1  0
 15 16  1  0
 15 17  1  0
 17 18  1  0
 17 19  2  0
 19 45  1  0
 20 21  2  0
 20 46  1  0
 21 22  1  0
 22 23  1  0
 23 24  1  0
 23 47  1  0
 23 48  1  0
 24 25  1  0
 24 49  1  0
 24 50  1  0
 25 26  1  0
 25 32  1  0
 26 27  1  1
 26 28  1  0
 26 29  1  0
 27 51  1  0
 27 52  1  0
 27 53  1  0
 28 54  1  0
 28 55  1  0
 28 56  1  0
 29 30  1  0
 29 57  1  0
 29 58  1  0
 30 31  1  0
 30 59  1  0
 30 60  1  0
 31 32  1  0
 31 61  1  0
 31 62  1  0
 32 33  1  1
 32 34  1  0
 33 63  1  0
 33 64  1  0
 33 65  1  0
 34 66  1  0
 34 67  1  0
 34 68  1  0
M  END

