
     RDKit          3D

 80 82  0  0  0  0  0  0  0  0999 V2000
    5.1887    3.5439   -1.3042 C   0  0  0  0  0  0  0  0  0  0  0  0
    3.6449    3.5517   -1.3672 C   0  0  1  0  0  0  0  0  0  0  0  0
    3.1319    2.3123   -0.6059 C   0  0  0  0  0  0  0  0  0  0  0  0
    3.1602    4.8125   -0.6211 C   0  0  0  0  0  0  0  0  0  0  0  0
    3.2108    3.6281   -2.8814 C   0  0  1  0  0  0  0  0  0  0  0  0
    3.5544    2.3939   -3.7537 C   0  0  0  0  0  0  0  0  0  0  0  0
    2.5086    1.2594   -3.7433 C   0  0  0  0  0  0  0  0  0  0  0  0
    1.1054    1.7606   -3.9951 C   0  0  0  0  0  0  0  0  0  0  0  0
    0.3191    1.1826   -4.9226 C   0  0  0  0  0  0  0  0  0  0  0  0
   -1.3824    1.6009   -5.2030 S   0  0  0  0  0  0  0  0  0  0  0  0
   -1.5411    1.2694   -6.9247 C   0  0  0  0  0  0  0  0  0  0  0  0
   -2.7312    1.0236   -7.5129 C   0  0  0  0  0  0  0  0  0  0  0  0
   -2.9820    0.8290   -8.9425 C   0  0  0  0  0  0  0  0  0  0  0  0
   -4.2773    0.4620   -9.3695 C   0  0  0  0  0  0  0  0  0  0  0  0
   -4.5730    0.2446  -10.7100 C   0  0  0  0  0  0  0  0  0  0  0  0
   -3.5872    0.3923  -11.7084 C   0  0  0  0  0  0  0  0  0  0  0  0
   -3.8383    0.1983  -13.1381 C   0  0  0  0  0  0  0  0  0  0  0  0
   -5.0293   -0.0437  -13.7261 C   0  0  0  0  0  0  0  0  0  0  0  0
   -5.1897   -0.3752  -15.4476 S   0  0  0  0  0  0  0  0  0  0  0  0
   -6.8893    0.0507  -15.7275 C   0  0  0  0  0  0  0  0  0  0  0  0
   -7.6779   -0.5225  -16.6561 C   0  0  0  0  0  0  0  0  0  0  0  0
   -7.2679   -1.6821  -17.5292 C   0  0  0  0  0  0  0  0  0  0  0  0
   -8.3206   -2.8129  -17.5400 C   0  0  0  0  0  0  0  0  0  0  0  0
   -9.7867   -2.3758  -17.7859 C   0  0  2  0  0  0  0  0  0  0  0  0
  -10.2322   -2.2653  -19.2950 C   0  0  1  0  0  0  0  0  0  0  0  0
  -10.2480   -3.6873  -19.8992 C   0  0  0  0  0  0  0  0  0  0  0  0
  -11.6703   -1.7129  -19.3792 C   0  0  0  0  0  0  0  0  0  0  0  0
   -9.3226   -1.3856  -20.1769 C   0  0  0  0  0  0  0  0  0  0  0  0
  -10.1038   -1.1780  -16.8566 C   0  0  0  0  0  0  0  0  0  0  0  0
   -9.0845   -0.0251  -16.8946 C   0  0  0  0  0  0  0  0  0  0  0  0
   -2.2919    0.7590  -11.2814 C   0  0  0  0  0  0  0  0  0  0  0  0
   -1.9962    0.9763   -9.9409 C   0  0  0  0  0  0  0  0  0  0  0  0
    0.6979    2.9312   -3.1360 C   0  0  0  0  0  0  0  0  0  0  0  0
    1.7532    4.0535   -3.1861 C   0  0  0  0  0  0  0  0  0  0  0  0
    5.5333    3.5222   -0.2576 H   0  0  0  0  0  0  0  0  0  0  0  0
    5.6130    4.4453   -1.7764 H   0  0  0  0  0  0  0  0  0  0  0  0
    5.6225    2.6660   -1.8074 H   0  0  0  0  0  0  0  0  0  0  0  0
    3.4473    2.3644    0.4495 H   0  0  0  0  0  0  0  0  0  0  0  0
    3.5396    1.3762   -1.0164 H   0  0  0  0  0  0  0  0  0  0  0  0
    2.0343    2.2391   -0.6126 H   0  0  0  0  0  0  0  0  0  0  0  0
    3.6127    4.8595    0.3827 H   0  0  0  0  0  0  0  0  0  0  0  0
    2.0680    4.8241   -0.4846 H   0  0  0  0  0  0  0  0  0  0  0  0
    3.4440    5.7339   -1.1564 H   0  0  0  0  0  0  0  0  0  0  0  0
    3.8330    4.4523   -3.2735 H   0  0  0  0  0  0  0  0  0  0  0  0
    4.5401    1.9830   -3.4848 H   0  0  0  0  0  0  0  0  0  0  0  0
    3.6507    2.7448   -4.7961 H   0  0  0  0  0  0  0  0  0  0  0  0
    2.5236    0.7469   -2.7659 H   0  0  0  0  0  0  0  0  0  0  0  0
    2.7822    0.4979   -4.4916 H   0  0  0  0  0  0  0  0  0  0  0  0
    0.6892    0.3396   -5.5159 H   0  0  0  0  0  0  0  0  0  0  0  0
   -0.6114    1.3243   -7.4991 H   0  0  0  0  0  0  0  0  0  0  0  0
   -3.6169    0.9560   -6.8704 H   0  0  0  0  0  0  0  0  0  0  0  0
   -5.0651    0.3363   -8.6212 H   0  0  0  0  0  0  0  0  0  0  0  0
   -5.5875   -0.0537  -10.9840 H   0  0  0  0  0  0  0  0  0  0  0  0
   -2.9524    0.2630  -13.7806 H   0  0  0  0  0  0  0  0  0  0  0  0
   -5.9590   -0.0952  -13.1514 H   0  0  0  0  0  0  0  0  0  0  0  0
   -7.2561    0.8939  -15.1324 H   0  0  0  0  0  0  0  0  0  0  0  0
   -6.3022   -2.0902  -17.1922 H   0  0  0  0  0  0  0  0  0  0  0  0
   -7.1022   -1.3076  -18.5539 H   0  0  0  0  0  0  0  0  0  0  0  0
   -8.2856   -3.3010  -16.5506 H   0  0  0  0  0  0  0  0  0  0  0  0
   -8.0133   -3.5849  -18.2626 H   0  0  0  0  0  0  0  0  0  0  0  0
  -10.4124   -3.2021  -17.4041 H   0  0  0  0  0  0  0  0  0  0  0  0
  -10.9416   -4.3468  -19.3520 H   0  0  0  0  0  0  0  0  0  0  0  0
   -9.2532   -4.1585  -19.8814 H   0  0  0  0  0  0  0  0  0  0  0  0
  -10.5758   -3.6578  -20.9511 H   0  0  0  0  0  0  0  0  0  0  0  0
  -12.3564   -2.2668  -18.7169 H   0  0  0  0  0  0  0  0  0  0  0  0
  -12.0553   -1.8062  -20.4077 H   0  0  0  0  0  0  0  0  0  0  0  0
  -11.7260   -0.6474  -19.1083 H   0  0  0  0  0  0  0  0  0  0  0  0
   -8.3027   -1.7917  -20.2532 H   0  0  0  0  0  0  0  0  0  0  0  0
   -9.2519   -0.3514  -19.8088 H   0  0  0  0  0  0  0  0  0  0  0  0
   -9.7274   -1.3383  -21.2015 H   0  0  0  0  0  0  0  0  0  0  0  0
  -10.1196   -1.5674  -15.8232 H   0  0  0  0  0  0  0  0  0  0  0  0
  -11.1150   -0.7880  -17.0430 H   0  0  0  0  0  0  0  0  0  0  0  0
   -9.3531    0.7384  -16.1466 H   0  0  0  0  0  0  0  0  0  0  0  0
   -9.1260    0.4794  -17.8772 H   0  0  0  0  0  0  0  0  0  0  0  0
   -1.5040    0.8844  -12.0297 H   0  0  0  0  0  0  0  0  0  0  0  0
   -0.9815    1.2741   -9.6668 H   0  0  0  0  0  0  0  0  0  0  0  0
    0.5565    2.5861   -2.0959 H   0  0  0  0  0  0  0  0  0  0  0  0
   -0.2755    3.3275   -3.4641 H   0  0  0  0  0  0  0  0  0  0  0  0
    1.4388    4.8845   -2.5383 H   0  0  0  0  0  0  0  0  0  0  0  0
    1.7452    4.4588   -4.2132 H   0  0  0  0  0  0  0  0  0  0  0  0
  2  1  1  6
  1 35  1  0
  1 36  1  0
  1 37  1  0
  2  3  1  0
  2  4  1  0
  2  5  1  0
  3 38  1  0
  3 39  1  0
  3 40  1  0
  4 41  1  0
  4 42  1  0
  4 43  1  0
  5  6  1  0
  5 34  1  0
  5 44  1  6
  6  7  1  0
  6 45  1  0
  6 46  1  0
  7  8  1  0
  7 47  1  0
  7 48  1  0
  8  9  2  0
  8 33  1  0
  9 10  1  0
  9 49  1  0
 10 11  1  0
 11 12  2  0
 11 50  1  0
 12 13  1  0
 12 51  1  0
 13 14  2  0
 13 32  1  0
 14 15  1  0
 14 52  1  0
 15 16  2  0
 15 53  1  0
 16 17  1  0
 16 31  1  0
 17 18  2  0
 17 54  1  0
 18 19  1  0
 18 55  1  0
 19 20  1  0
 20 21  2  0
 20 56  1  0
 21 22  1  0
 21 30  1  0
 22 23  1  0
 22 57  1  0
 22 58  1  0
 23 24  1  0
 23 59  1  0
 23 60  1  0
 24 25  1  0
 24 29  1  0
 24 61  1  1
 25 26  1  6
 25 27  1  0
 25 28  1  0
 26 62  1  0
 26 63  1  0
 26 64  1  0
 27 65  1  0
 27 66  1  0
 27 67  1  0
 28 68  1  0
 28 69  1  0
 28 70  1  0
 29 30  1  0
 29 71  1  0
 29 72  1  0
 30 73  1  0
 30 74  1  0
 31 32  2  0
 31 75  1  0
 32 76  1  0
 33 34  1  0
 33 77  1  0
 33 78  1  0
 34 79  1  0
 34 80  1  0
M  END

