
     RDKit          3D

 36 37  0  0  0  0  0  0  0  0999 V2000
    1.0637    0.0515   -0.7945 C   0  0  0  0  0  0  0  0  0  0  0  0
    2.5529    0.0854   -0.4688 C   0  0  0  0  0  0  0  0  0  0  0  0
    3.0906   -1.2595   -0.3265 N   0  0  0  0  0  0  0  0  0  0  0  0
    4.5295   -1.3542   -0.0904 C   0  0  1  0  0  0  0  0  0  0  0  0
    4.8912   -1.0069    1.3874 C   0  0  0  0  0  0  0  0  0  0  0  0
    4.3360   -1.9302    2.4436 C   0  0  0  0  0  0  0  0  0  0  0  0
    5.0990   -2.9761    2.9999 C   0  0  0  0  0  0  0  0  0  0  0  0
    4.5502   -3.8134    3.9603 C   0  0  0  0  0  0  0  0  0  0  0  0
    3.2154   -3.5807    4.3462 C   0  0  0  0  0  0  0  0  0  0  0  0
    2.6870   -4.4017    5.2766 O   0  0  0  0  0  0  0  0  0  0  0  0
    1.3448   -4.1717    5.6763 C   0  0  0  0  0  0  0  0  0  0  0  0
    2.4783   -2.6019    3.8422 N   0  0  0  0  0  0  0  0  0  0  0  0
    3.0272   -1.8018    2.9192 C   0  0  0  0  0  0  0  0  0  0  0  0
    5.0287   -2.7223   -0.5039 C   0  0  0  0  0  0  0  0  0  0  0  0
    4.3461   -3.9558   -0.2263 C   0  0  0  0  0  0  0  0  0  0  0  0
    5.0134   -5.0554   -0.7005 C   0  0  0  0  0  0  0  0  0  0  0  0
    6.4899   -4.6159   -1.4886 S   0  0  0  0  0  0  0  0  0  0  0  0
    6.2040   -2.9367   -1.1871 C   0  0  0  0  0  0  0  0  0  0  0  0
    0.6545    1.0704   -0.8774 H   0  0  0  0  0  0  0  0  0  0  0  0
    0.5052   -0.4880   -0.0139 H   0  0  0  0  0  0  0  0  0  0  0  0
    0.8780   -0.4593   -1.7550 H   0  0  0  0  0  0  0  0  0  0  0  0
    2.7030    0.6332    0.4776 H   0  0  0  0  0  0  0  0  0  0  0  0
    3.0921    0.6756   -1.2460 H   0  0  0  0  0  0  0  0  0  0  0  0
    2.8483   -1.8099   -1.1490 H   0  0  0  0  0  0  0  0  0  0  0  0
    5.0823   -0.6092   -0.7060 H   0  0  0  0  0  0  0  0  0  0  0  0
    4.5498    0.0232    1.5824 H   0  0  0  0  0  0  0  0  0  0  0  0
    5.9902   -0.9825    1.4579 H   0  0  0  0  0  0  0  0  0  0  0  0
    6.1314   -3.1290    2.6730 H   0  0  0  0  0  0  0  0  0  0  0  0
    5.1119   -4.6302    4.4159 H   0  0  0  0  0  0  0  0  0  0  0  0
    1.1177   -4.9389    6.4288 H   0  0  0  0  0  0  0  0  0  0  0  0
    0.6502   -4.2598    4.8255 H   0  0  0  0  0  0  0  0  0  0  0  0
    1.2203   -3.1672    6.1112 H   0  0  0  0  0  0  0  0  0  0  0  0
    2.3837   -1.0035    2.5337 H   0  0  0  0  0  0  0  0  0  0  0  0
    3.3962   -4.0075    0.3058 H   0  0  0  0  0  0  0  0  0  0  0  0
    4.7224   -6.1024   -0.6256 H   0  0  0  0  0  0  0  0  0  0  0  0
    6.9160   -2.1894   -1.5365 H   0  0  0  0  0  0  0  0  0  0  0  0
  1  2  1  0
  1 19  1  0
  1 20  1  0
  1 21  1  0
  2  3  1  0
  2 22  1  0
  2 23  1  0
  3  4  1  0
  3 24  1  0
  4  5  1  0
  4 14  1  0
  4 25  1  6
  5  6  1  0
  5 26  1  0
  5 27  1  0
  6  7  2  0
  6 13  1  0
  7  8  1  0
  7 28  1  0
  8  9  2  0
  8 29  1  0
  9 10  1  0
  9 12  1  0
 10 11  1  0
 11 30  1  0
 11 31  1  0
 11 32  1  0
 12 13  2  0
 13 33  1  0
 14 15  1  0
 14 18  2  0
 15 16  2  0
 15 34  1  0
 16 17  1  0
 16 35  1  0
 17 18  1  0
 18 36  1  0
M  END

