
     RDKit          3D

 44 46  0  0  0  0  0  0  0  0999 V2000
    0.5142   -0.3240    1.0781 C   0  0  0  0  0  0  0  0  0  0  0  0
    1.8899   -0.3059    0.4637 C   0  0  0  0  0  0  0  0  0  0  0  0
    2.3721    0.8729   -0.1680 C   0  0  0  0  0  0  0  0  0  0  0  0
    3.6533    0.9378   -0.7073 C   0  0  0  0  0  0  0  0  0  0  0  0
    4.0837    2.2504   -1.3108 C   0  0  0  0  0  0  0  0  0  0  0  0
    3.3678    2.8843   -2.0599 O   0  0  0  0  0  0  0  0  0  0  0  0
    5.3299    2.6879   -0.8925 N   0  0  0  0  0  0  0  0  0  0  0  0
    5.8663    3.9367   -1.2112 C   0  0  0  0  0  0  0  0  0  0  0  0
    5.3329    5.0192   -1.8939 C   0  0  0  0  0  0  0  0  0  0  0  0
    6.3625    5.9992   -1.8722 C   0  0  0  0  0  0  0  0  0  0  0  0
    6.3325    7.3755   -2.4622 C   0  0  0  0  0  0  0  0  0  0  0  0
    7.4399    5.5546   -1.2364 N   0  0  0  0  0  0  0  0  0  0  0  0
    7.1432    4.2895   -0.8464 N   0  0  0  0  0  0  0  0  0  0  0  0
    8.1531    3.5535   -0.1224 C   0  0  0  0  0  0  0  0  0  0  0  0
    8.1749    3.8603    1.3915 C   0  0  0  0  0  0  0  0  0  0  0  0
    7.0121    3.3052    2.0855 C   0  0  0  0  0  0  0  0  0  0  0  0
    6.0773    2.8171    2.5668 N   0  0  0  0  0  0  0  0  0  0  0  0
    4.4370   -0.2410   -0.6515 C   0  0  0  0  0  0  0  0  0  0  0  0
    5.6995   -0.7515   -1.1210 C   0  0  0  0  0  0  0  0  0  0  0  0
    6.7751   -0.0953   -1.9315 C   0  0  0  0  0  0  0  0  0  0  0  0
    5.8290   -2.0230   -0.7698 N   0  0  0  0  0  0  0  0  0  0  0  0
    4.7215   -2.3891   -0.0950 N   0  0  0  0  0  0  0  0  0  0  0  0
    4.5550   -3.7367    0.4003 C   0  0  0  0  0  0  0  0  0  0  0  0
    3.8319   -1.3573   -0.0067 C   0  0  0  0  0  0  0  0  0  0  0  0
    2.6211   -1.4149    0.5487 N   0  0  0  0  0  0  0  0  0  0  0  0
    0.4628    0.3555    1.9456 H   0  0  0  0  0  0  0  0  0  0  0  0
    0.2694   -1.3396    1.4155 H   0  0  0  0  0  0  0  0  0  0  0  0
   -0.2491    0.0119    0.3578 H   0  0  0  0  0  0  0  0  0  0  0  0
    1.7321    1.7555   -0.2198 H   0  0  0  0  0  0  0  0  0  0  0  0
    5.7349    2.1840   -0.1096 H   0  0  0  0  0  0  0  0  0  0  0  0
    4.3451    5.0701   -2.3365 H   0  0  0  0  0  0  0  0  0  0  0  0
    6.1691    7.3402   -3.5518 H   0  0  0  0  0  0  0  0  0  0  0  0
    7.2860    7.8865   -2.2692 H   0  0  0  0  0  0  0  0  0  0  0  0
    5.5179    7.9794   -2.0301 H   0  0  0  0  0  0  0  0  0  0  0  0
    9.1226    3.8453   -0.5489 H   0  0  0  0  0  0  0  0  0  0  0  0
    8.0225    2.4751   -0.2971 H   0  0  0  0  0  0  0  0  0  0  0  0
    8.2063    4.9522    1.5335 H   0  0  0  0  0  0  0  0  0  0  0  0
    9.0886    3.4396    1.8431 H   0  0  0  0  0  0  0  0  0  0  0  0
    6.3604    0.4748   -2.7768 H   0  0  0  0  0  0  0  0  0  0  0  0
    7.4501   -0.8690   -2.3225 H   0  0  0  0  0  0  0  0  0  0  0  0
    7.3832    0.6043   -1.3341 H   0  0  0  0  0  0  0  0  0  0  0  0
    5.3429   -3.9792    1.1300 H   0  0  0  0  0  0  0  0  0  0  0  0
    4.6027   -4.4600   -0.4282 H   0  0  0  0  0  0  0  0  0  0  0  0
    3.5724   -3.7949    0.8856 H   0  0  0  0  0  0  0  0  0  0  0  0
  1  2  1  0
  1 26  1  0
  1 27  1  0
  1 28  1  0
  2  3  2  0
  2 25  1  0
  3  4  1  0
  3 29  1  0
  4  5  1  0
  4 18  2  0
  5  6  2  0
  5  7  1  0
  7  8  1  0
  7 30  1  0
  8  9  2  0
  8 13  1  0
  9 10  1  0
  9 31  1  0
 10 11  1  0
 10 12  2  0
 11 32  1  0
 11 33  1  0
 11 34  1  0
 12 13  1  0
 13 14  1  0
 14 15  1  0
 14 35  1  0
 14 36  1  0
 15 16  1  0
 15 37  1  0
 15 38  1  0
 16 17  3  0
 18 19  1  0
 18 24  1  0
 19 20  1  0
 19 21  2  0
 20 39  1  0
 20 40  1  0
 20 41  1  0
 21 22  1  0
 22 23  1  0
 22 24  1  0
 23 42  1  0
 23 43  1  0
 23 44  1  0
 24 25  2  0
M  END

