
     RDKit          3D

 25 25  0  0  0  0  0  0  0  0999 V2000
    1.2712    1.5140   -2.1364 C   0  0  0  0  0  0  0  0  0  0  0  0
    2.3611    0.7379   -1.6909 O   0  0  0  0  0  0  0  0  0  0  0  0
    2.6727    1.0501   -0.3331 N   0  0  0  0  0  0  0  0  0  0  0  0
    4.1205    1.1815   -0.2311 C   0  0  0  0  0  0  0  0  0  0  0  0
    4.6243    2.5323   -0.7022 C   0  0  0  0  0  0  0  0  0  0  0  0
    3.8945    3.7090   -0.4861 C   0  0  0  0  0  0  0  0  0  0  0  0
    4.4070    4.9429   -0.8929 C   0  0  0  0  0  0  0  0  0  0  0  0
    5.6444    5.0186   -1.5316 C   0  0  0  0  0  0  0  0  0  0  0  0
    6.4021    3.8611   -1.7635 C   0  0  0  0  0  0  0  0  0  0  0  0
    7.6113    4.0205   -2.3585 O   0  0  0  0  0  0  0  0  0  0  0  0
    8.1437    3.0183   -3.2119 C   0  0  0  0  0  0  0  0  0  0  0  0
    5.8720    2.6340   -1.3247 C   0  0  0  0  0  0  0  0  0  0  0  0
    6.6023    1.5058   -1.4924 F   0  0  0  0  0  0  0  0  0  0  0  0
    1.0948    1.2147   -3.1810 H   0  0  0  0  0  0  0  0  0  0  0  0
    1.4901    2.5955   -2.0998 H   0  0  0  0  0  0  0  0  0  0  0  0
    0.3537    1.3175   -1.5500 H   0  0  0  0  0  0  0  0  0  0  0  0
    2.3958    0.2138    0.1879 H   0  0  0  0  0  0  0  0  0  0  0  0
    4.6427    0.3762   -0.7763 H   0  0  0  0  0  0  0  0  0  0  0  0
    4.3639    1.0563    0.8404 H   0  0  0  0  0  0  0  0  0  0  0  0
    2.9211    3.6342    0.0013 H   0  0  0  0  0  0  0  0  0  0  0  0
    3.8335    5.8568   -0.7195 H   0  0  0  0  0  0  0  0  0  0  0  0
    6.0615    5.9698   -1.8680 H   0  0  0  0  0  0  0  0  0  0  0  0
    8.9471    3.5022   -3.7852 H   0  0  0  0  0  0  0  0  0  0  0  0
    7.3813    2.6390   -3.9139 H   0  0  0  0  0  0  0  0  0  0  0  0
    8.5608    2.1703   -2.6480 H   0  0  0  0  0  0  0  0  0  0  0  0
  1  2  1  0
  1 14  1  0
  1 15  1  0
  1 16  1  0
  2  3  1  0
  3  4  1  0
  3 17  1  0
  4  5  1  0
  4 18  1  0
  4 19  1  0
  5  6  2  0
  5 12  1  0
  6  7  1  0
  6 20  1  0
  7  8  2  0
  7 21  1  0
  8  9  1  0
  8 22  1  0
  9 10  1  0
  9 12  2  0
 10 11  1  0
 11 23  1  0
 11 24  1  0
 11 25  1  0
 12 13  1  0
M  END

