
     RDKit          3D

 47 47  0  0  0  0  0  0  0  0999 V2000
    8.6309    2.6993    2.8358 C   0  0  0  0  0  0  0  0  0  0  0  0
    7.2389    2.9710    2.2646 C   0  0  0  0  0  0  0  0  0  0  0  0
    7.1905    2.8804    0.7373 C   0  0  0  0  0  0  0  0  0  0  0  0
    5.8122    3.1895    0.1533 C   0  0  1  0  0  0  0  0  0  0  0  0
    5.4816    4.5261    0.4890 O   0  0  0  0  0  0  0  0  0  0  0  0
    4.1167    4.8501    0.3808 C   0  0  0  0  0  0  0  0  0  0  0  0
    5.7845    2.9947   -1.3443 C   0  0  0  0  0  0  0  0  0  0  0  0
    4.8319    2.3231   -1.9398 N   0  0  0  0  0  0  0  0  0  0  0  0
    5.1625    2.4103   -3.2861 O   0  0  0  0  0  0  0  0  0  0  0  0
    6.2918    3.1297   -3.3689 C   0  0  0  0  0  0  0  0  0  0  0  0
    6.8517    3.4081   -4.7430 C   0  0  1  0  0  0  0  0  0  0  0  0
    5.7183    3.9817   -5.6511 C   0  0  0  0  0  0  0  0  0  0  0  0
    5.0980    5.2946   -5.1708 C   0  0  0  0  0  0  0  0  0  0  0  0
    8.0549    4.3924   -4.6592 C   0  0  0  0  0  0  0  0  0  0  0  0
    9.3460    3.8351   -4.0556 C   0  0  0  0  0  0  0  0  0  0  0  0
    7.3447    2.0674   -5.3214 C   0  0  0  0  0  0  0  0  0  0  0  0
    7.4660    1.0489   -4.6875 O   0  0  0  0  0  0  0  0  0  0  0  0
    7.6542    2.1835   -6.6229 O   0  0  0  0  0  0  0  0  0  0  0  0
    8.1418    1.0074   -7.3026 C   0  0  0  0  0  0  0  0  0  0  0  0
    9.6428    0.8408   -7.1417 C   0  0  0  0  0  0  0  0  0  0  0  0
    6.7166    3.5249   -2.2074 N   0  0  0  0  0  0  0  0  0  0  0  0
    8.6373    2.7757    3.9348 H   0  0  0  0  0  0  0  0  0  0  0  0
    9.3697    3.4206    2.4480 H   0  0  0  0  0  0  0  0  0  0  0  0
    8.9873    1.6896    2.5704 H   0  0  0  0  0  0  0  0  0  0  0  0
    6.8953    3.9730    2.5675 H   0  0  0  0  0  0  0  0  0  0  0  0
    6.5152    2.2548    2.6955 H   0  0  0  0  0  0  0  0  0  0  0  0
    7.4895    1.8710    0.4052 H   0  0  0  0  0  0  0  0  0  0  0  0
    7.9102    3.5850    0.2881 H   0  0  0  0  0  0  0  0  0  0  0  0
    5.0590    2.4964    0.5779 H   0  0  0  0  0  0  0  0  0  0  0  0
    4.0078    5.9073    0.6634 H   0  0  0  0  0  0  0  0  0  0  0  0
    3.4937    4.2345    1.0599 H   0  0  0  0  0  0  0  0  0  0  0  0
    3.7284    4.7165   -0.6467 H   0  0  0  0  0  0  0  0  0  0  0  0
    4.9292    3.2173   -5.7369 H   0  0  0  0  0  0  0  0  0  0  0  0
    6.1421    4.1091   -6.6576 H   0  0  0  0  0  0  0  0  0  0  0  0
    4.6517    5.1998   -4.1679 H   0  0  0  0  0  0  0  0  0  0  0  0
    4.2938    5.6020   -5.8575 H   0  0  0  0  0  0  0  0  0  0  0  0
    5.8308    6.1150   -5.1368 H   0  0  0  0  0  0  0  0  0  0  0  0
    7.7308    5.2646   -4.0725 H   0  0  0  0  0  0  0  0  0  0  0  0
    8.2500    4.7463   -5.6843 H   0  0  0  0  0  0  0  0  0  0  0  0
    9.1835    3.4666   -3.0336 H   0  0  0  0  0  0  0  0  0  0  0  0
   10.1096    4.6277   -4.0122 H   0  0  0  0  0  0  0  0  0  0  0  0
    9.7639    3.0135   -4.6586 H   0  0  0  0  0  0  0  0  0  0  0  0
    7.8670    1.1648   -8.3555 H   0  0  0  0  0  0  0  0  0  0  0  0
    7.6037    0.1292   -6.9169 H   0  0  0  0  0  0  0  0  0  0  0  0
   10.1803    1.7364   -7.4901 H   0  0  0  0  0  0  0  0  0  0  0  0
    9.9868   -0.0194   -7.7382 H   0  0  0  0  0  0  0  0  0  0  0  0
    9.9062    0.6529   -6.0905 H   0  0  0  0  0  0  0  0  0  0  0  0
  1  2  1  0
  1 22  1  0
  1 23  1  0
  1 24  1  0
  2  3  1  0
  2 25  1  0
  2 26  1  0
  3  4  1  0
  3 27  1  0
  3 28  1  0
  4  5  1  0
  4  7  1  0
  4 29  1  1
  5  6  1  0
  6 30  1  0
  6 31  1  0
  6 32  1  0
  7  8  2  0
  7 21  1  0
  8  9  1  0
  9 10  1  0
 10 11  1  0
 10 21  2  0
 11 12  1  0
 11 14  1  0
 11 16  1  6
 12 13  1  0
 12 33  1  0
 12 34  1  0
 13 35  1  0
 13 36  1  0
 13 37  1  0
 14 15  1  0
 14 38  1  0
 14 39  1  0
 15 40  1  0
 15 41  1  0
 15 42  1  0
 16 17  2  0
 16 18  1  0
 18 19  1  0
 19 20  1  0
 19 43  1  0
 19 44  1  0
 20 45  1  0
 20 46  1  0
 20 47  1  0
M  END

