
     RDKit          3D

 38 38  0  0  0  0  0  0  0  0999 V2000
    3.1740    4.9507    2.9190 C   0  0  0  0  0  0  0  0  0  0  0  0
    3.1392    4.7837    1.4003 C   0  0  0  0  0  0  0  0  0  0  0  0
    3.4114    3.3495    0.9129 C   0  0  1  0  0  0  0  0  0  0  0  0
    3.2221    3.2148   -0.6029 C   0  0  0  0  0  0  0  0  0  0  0  0
    4.7443    2.9028    1.3072 N   0  0  0  0  0  0  0  0  0  0  0  0
    4.9675    1.7805    2.0394 C   0  0  0  0  0  0  0  0  0  0  0  0
    4.1010    1.0208    2.4427 O   0  0  0  0  0  0  0  0  0  0  0  0
    6.4584    1.4965    2.3209 C   0  0  0  0  0  0  0  0  0  0  0  0
    7.1462    2.5426    3.0589 N   0  0  0  0  0  0  0  0  0  0  0  0
    7.4764    2.5448    4.4130 C   0  0  0  0  0  0  0  0  0  0  0  0
    8.1477    3.6966    4.6627 C   0  0  0  0  0  0  0  0  0  0  0  0
    8.2304    4.4141    3.4687 N   0  0  0  0  0  0  0  0  0  0  0  0
    8.8719    5.7258    3.2895 C   0  0  1  0  0  0  0  0  0  0  0  0
   10.0461    5.6339    2.3088 C   0  0  0  0  0  0  0  0  0  0  0  0
    7.8468    6.7914    2.8862 C   0  0  0  0  0  0  0  0  0  0  0  0
    7.6020    3.7063    2.4601 C   0  0  0  0  0  0  0  0  0  0  0  0
    7.4492    4.0275    1.2774 O   0  0  0  0  0  0  0  0  0  0  0  0
    2.9673    5.9929    3.2101 H   0  0  0  0  0  0  0  0  0  0  0  0
    4.1588    4.6770    3.3291 H   0  0  0  0  0  0  0  0  0  0  0  0
    2.4232    4.3093    3.4091 H   0  0  0  0  0  0  0  0  0  0  0  0
    3.8721    5.4649    0.9289 H   0  0  0  0  0  0  0  0  0  0  0  0
    2.1512    5.0912    1.0156 H   0  0  0  0  0  0  0  0  0  0  0  0
    2.7155    2.6624    1.4191 H   0  0  0  0  0  0  0  0  0  0  0  0
    3.9289    3.8617   -1.1499 H   0  0  0  0  0  0  0  0  0  0  0  0
    2.2015    3.5059   -0.8990 H   0  0  0  0  0  0  0  0  0  0  0  0
    3.3899    2.1763   -0.9265 H   0  0  0  0  0  0  0  0  0  0  0  0
    5.5614    3.4415    1.0034 H   0  0  0  0  0  0  0  0  0  0  0  0
    6.9839    1.3516    1.3625 H   0  0  0  0  0  0  0  0  0  0  0  0
    6.5026    0.5651    2.8975 H   0  0  0  0  0  0  0  0  0  0  0  0
    7.2067    1.7257    5.0735 H   0  0  0  0  0  0  0  0  0  0  0  0
    8.5753    4.0732    5.5876 H   0  0  0  0  0  0  0  0  0  0  0  0
    9.2681    5.9821    4.2859 H   0  0  0  0  0  0  0  0  0  0  0  0
    9.6886    5.3373    1.3120 H   0  0  0  0  0  0  0  0  0  0  0  0
   10.7862    4.8935    2.6501 H   0  0  0  0  0  0  0  0  0  0  0  0
   10.5491    6.6100    2.2264 H   0  0  0  0  0  0  0  0  0  0  0  0
    7.4077    6.5476    1.9080 H   0  0  0  0  0  0  0  0  0  0  0  0
    8.3318    7.7776    2.8174 H   0  0  0  0  0  0  0  0  0  0  0  0
    7.0359    6.8579    3.6281 H   0  0  0  0  0  0  0  0  0  0  0  0
  1  2  1  0
  1 18  1  0
  1 19  1  0
  1 20  1  0
  2  3  1  0
  2 21  1  0
  2 22  1  0
  3  4  1  0
  3  5  1  0
  3 23  1  1
  4 24  1  0
  4 25  1  0
  4 26  1  0
  5  6  1  0
  5 27  1  0
  6  7  2  0
  6  8  1  0
  8  9  1  0
  8 28  1  0
  8 29  1  0
  9 10  1  0
  9 16  1  0
 10 11  2  0
 10 30  1  0
 11 12  1  0
 11 31  1  0
 12 13  1  0
 12 16  1  0
 13 14  1  0
 13 15  1  0
 13 32  1  1
 14 33  1  0
 14 34  1  0
 14 35  1  0
 15 36  1  0
 15 37  1  0
 15 38  1  0
 16 17  2  0
M  END

