
     RDKit          3D

 25 26  0  0  0  0  0  0  0  0999 V2000
    1.2074    0.0150    0.7916 C   0  0  0  0  0  0  0  0  0  0  0  0
    2.4060   -0.0095    0.6040 C   0  0  0  0  0  0  0  0  0  0  0  0
    3.8207   -0.0043    0.3852 C   0  0  0  0  0  0  0  0  0  0  0  0
    4.5152    1.2174    0.3022 C   0  0  0  0  0  0  0  0  0  0  0  0
    5.8960    1.2334    0.1174 C   0  0  0  0  0  0  0  0  0  0  0  0
    6.5993    0.0364    0.0082 C   0  0  0  0  0  0  0  0  0  0  0  0
    5.9384   -1.2023    0.0650 C   0  0  0  0  0  0  0  0  0  0  0  0
    6.8420   -2.4181   -0.0916 C   0  0  0  0  0  0  0  0  0  0  0  0
    8.0385   -2.3098   -0.0037 O   0  0  0  0  0  0  0  0  0  0  0  0
    6.2879   -3.6049   -0.3643 O   0  0  0  0  0  0  0  0  0  0  0  0
    4.5431   -1.2176    0.2627 C   0  0  0  0  0  0  0  0  0  0  0  0
    3.8227   -2.4482    0.3627 N   0  0  0  0  0  0  0  0  0  0  0  0
    3.6907   -3.2110    1.5112 C   0  0  0  0  0  0  0  0  0  0  0  0
    2.8864   -4.2911    1.2191 C   0  0  0  0  0  0  0  0  0  0  0  0
    2.5051   -4.1837   -0.1518 C   0  0  0  0  0  0  0  0  0  0  0  0
    3.0820   -3.0363   -0.6549 C   0  0  0  0  0  0  0  0  0  0  0  0
    0.1465    0.0263    0.9580 H   0  0  0  0  0  0  0  0  0  0  0  0
    3.9533    2.1487    0.3942 H   0  0  0  0  0  0  0  0  0  0  0  0
    6.4272    2.1863    0.0615 H   0  0  0  0  0  0  0  0  0  0  0  0
    7.6816    0.0227   -0.1269 H   0  0  0  0  0  0  0  0  0  0  0  0
    5.3180   -3.5565   -0.4041 H   0  0  0  0  0  0  0  0  0  0  0  0
    4.1951   -2.9185    2.4291 H   0  0  0  0  0  0  0  0  0  0  0  0
    2.6068   -5.0800    1.9147 H   0  0  0  0  0  0  0  0  0  0  0  0
    1.8727   -4.8716   -0.7099 H   0  0  0  0  0  0  0  0  0  0  0  0
    3.0277   -2.5740   -1.6378 H   0  0  0  0  0  0  0  0  0  0  0  0
  1  2  3  0
  1 17  1  0
  2  3  1  0
  3  4  2  0
  3 11  1  0
  4  5  1  0
  4 18  1  0
  5  6  2  0
  5 19  1  0
  6  7  1  0
  6 20  1  0
  7  8  1  0
  7 11  2  0
  8  9  2  0
  8 10  1  0
 10 21  1  0
 11 12  1  0
 12 13  1  0
 12 16  1  0
 13 14  2  0
 13 22  1  0
 14 15  1  0
 14 23  1  0
 15 16  2  0
 15 24  1  0
 16 25  1  0
M  END

