
     RDKit          3D

 49 50  0  0  0  0  0  0  0  0999 V2000
    2.0331    1.1362   -1.7547 C   0  0  0  0  0  0  0  0  0  0  0  0
    1.9604   -0.3869   -1.6329 C   0  0  0  0  0  0  0  0  0  0  0  0
    2.9084   -1.0197   -0.5912 C   0  0  2  0  0  0  0  0  0  0  0  0
    2.7832   -2.1104   -0.6726 H   0  0  0  0  0  0  0  0  0  0  0  0
    2.6191   -0.5930    0.8498 C   0  0  0  0  0  0  0  0  0  0  0  0
    4.3147   -0.7720   -0.9078 N   0  0  0  0  0  0  0  0  0  0  0  0
    5.0530   -1.5981   -1.7066 C   0  0  0  0  0  0  0  0  0  0  0  0
    4.5761   -2.6077   -2.2136 O   0  0  0  0  0  0  0  0  0  0  0  0
    6.5160   -1.1911   -1.8943 C   0  0  1  0  0  0  0  0  0  0  0  0
    7.4595   -2.1650   -1.1432 C   0  0  0  0  0  0  0  0  0  0  0  0
    7.6072   -3.5132   -1.8578 C   0  0  0  0  0  0  0  0  0  0  0  0
    7.9939   -3.3282   -3.2624 N   0  0  0  0  0  0  0  0  0  0  0  0
    9.6288   -3.3370   -3.6364 S   0  0  1  0  0  0  0  0  0  0  0  0
    9.8217   -2.5233   -4.8448 O   0  0  0  0  0  0  0  0  0  0  0  0
   10.3982   -3.0725   -2.4165 O   0  0  0  0  0  0  0  0  0  0  0  0
    9.9543   -5.0109   -4.1226 C   0  0  0  0  0  0  0  0  0  0  0  0
   10.3973   -5.4072   -5.3631 C   0  0  0  0  0  0  0  0  0  0  0  0
   10.5359   -6.7732   -5.2671 N   0  0  0  0  0  0  0  0  0  0  0  0
   10.9872   -7.6703   -6.3149 C   0  0  0  0  0  0  0  0  0  0  0  0
   10.1705   -7.1288   -3.9848 C   0  0  0  0  0  0  0  0  0  0  0  0
   10.1861   -8.5387   -3.4936 C   0  0  0  0  0  0  0  0  0  0  0  0
    9.8180   -6.0742   -3.2794 N   0  0  0  0  0  0  0  0  0  0  0  0
    7.0824   -2.4847   -4.0435 C   0  0  0  0  0  0  0  0  0  0  0  0
    6.9006   -1.1081   -3.3911 C   0  0  0  0  0  0  0  0  0  0  0  0
    1.3687    1.4974   -2.5554 H   0  0  0  0  0  0  0  0  0  0  0  0
    3.0537    1.4705   -2.0043 H   0  0  0  0  0  0  0  0  0  0  0  0
    1.7296    1.6460   -0.8257 H   0  0  0  0  0  0  0  0  0  0  0  0
    2.1904   -0.8487   -2.6071 H   0  0  0  0  0  0  0  0  0  0  0  0
    0.9287   -0.6934   -1.3846 H   0  0  0  0  0  0  0  0  0  0  0  0
    3.2563   -1.1467    1.5567 H   0  0  0  0  0  0  0  0  0  0  0  0
    1.5676   -0.7918    1.1089 H   0  0  0  0  0  0  0  0  0  0  0  0
    2.7988    0.4843    1.0053 H   0  0  0  0  0  0  0  0  0  0  0  0
    4.7532    0.0635   -0.5398 H   0  0  0  0  0  0  0  0  0  0  0  0
    6.6503   -0.1877   -1.4552 H   0  0  0  0  0  0  0  0  0  0  0  0
    7.0993   -2.3221   -0.1121 H   0  0  0  0  0  0  0  0  0  0  0  0
    8.4586   -1.7054   -1.0745 H   0  0  0  0  0  0  0  0  0  0  0  0
    6.6521   -4.0608   -1.8510 H   0  0  0  0  0  0  0  0  0  0  0  0
    8.3616   -4.1359   -1.3607 H   0  0  0  0  0  0  0  0  0  0  0  0
   10.6160   -4.8424   -6.2646 H   0  0  0  0  0  0  0  0  0  0  0  0
   11.2046   -7.0882   -7.2197 H   0  0  0  0  0  0  0  0  0  0  0  0
   10.2137   -8.4158   -6.5575 H   0  0  0  0  0  0  0  0  0  0  0  0
   11.9040   -8.2010   -6.0135 H   0  0  0  0  0  0  0  0  0  0  0  0
    9.5110   -9.1881   -4.0766 H   0  0  0  0  0  0  0  0  0  0  0  0
    9.8542   -8.5436   -2.4479 H   0  0  0  0  0  0  0  0  0  0  0  0
   11.1954   -8.9820   -3.5404 H   0  0  0  0  0  0  0  0  0  0  0  0
    6.1157   -3.0069   -4.0994 H   0  0  0  0  0  0  0  0  0  0  0  0
    7.4858   -2.3762   -5.0578 H   0  0  0  0  0  0  0  0  0  0  0  0
    6.1443   -0.5290   -3.9478 H   0  0  0  0  0  0  0  0  0  0  0  0
    7.8535   -0.5585   -3.4746 H   0  0  0  0  0  0  0  0  0  0  0  0
  1  2  1  0
  1 25  1  0
  1 26  1  0
  1 27  1  0
  2  3  1  0
  2 28  1  0
  2 29  1  0
  3  4  1  1
  3  5  1  0
  3  6  1  0
  5 30  1  0
  5 31  1  0
  5 32  1  0
  6  7  1  0
  6 33  1  0
  7  8  2  0
  7  9  1  0
  9 10  1  0
  9 24  1  0
  9 34  1  1
 10 11  1  0
 10 35  1  0
 10 36  1  0
 11 12  1  0
 11 37  1  0
 11 38  1  0
 12 13  1  0
 12 23  1  0
 13 14  2  0
 13 15  2  0
 13 16  1  6
 16 17  2  0
 16 22  1  0
 17 18  1  0
 17 39  1  0
 18 19  1  0
 18 20  1  0
 19 40  1  0
 19 41  1  0
 19 42  1  0
 20 21  1  0
 20 22  2  0
 21 43  1  0
 21 44  1  0
 21 45  1  0
 23 24  1  0
 23 46  1  0
 23 47  1  0
 24 48  1  0
 24 49  1  0
M  END

