
     RDKit          3D

 49 52  0  0  0  0  0  0  0  0999 V2000
    1.2509    0.0344   -0.3891 O   0  0  0  0  0  0  0  0  0  0  0  0
    2.4553   -0.0531   -0.3218 C   0  0  0  0  0  0  0  0  0  0  0  0
    3.2977   -1.2620   -0.1861 C   0  0  0  0  0  0  0  0  0  0  0  0
    2.6812   -2.5993   -0.2747 C   0  0  0  0  0  0  0  0  0  0  0  0
    1.4881   -2.8950    0.4159 C   0  0  0  0  0  0  0  0  0  0  0  0
    0.8755   -4.1430    0.2981 C   0  0  0  0  0  0  0  0  0  0  0  0
    1.4531   -5.1073   -0.5245 C   0  0  0  0  0  0  0  0  0  0  0  0
    0.8693   -6.3092   -0.6391 F   0  0  0  0  0  0  0  0  0  0  0  0
    2.6221   -4.8481   -1.2371 C   0  0  0  0  0  0  0  0  0  0  0  0
    3.2238   -3.5959   -1.1111 C   0  0  0  0  0  0  0  0  0  0  0  0
    4.6183   -0.8638   -0.1146 C   0  0  0  0  0  0  0  0  0  0  0  0
    5.7523   -1.5771    0.1263 N   0  0  0  0  0  0  0  0  0  0  0  0
    5.7325   -2.8090    0.9234 C   0  0  0  0  0  0  0  0  0  0  0  0
    6.6067   -3.9057    0.3118 C   0  0  0  0  0  0  0  0  0  0  0  0
    8.0268   -3.4001    0.0395 C   0  0  0  0  0  0  0  0  0  0  0  0
    7.9967   -2.1035   -0.7787 C   0  0  2  0  0  0  0  0  0  0  0  0
    9.4022   -1.5446   -1.0274 C   0  0  0  0  0  0  0  0  0  0  0  0
    9.4115   -0.3542   -1.7847 O   0  0  0  0  0  0  0  0  0  0  0  0
    7.1030   -1.0517   -0.1025 C   0  0  0  0  0  0  0  0  0  0  0  0
    4.6503    0.6631   -0.2175 C   0  0  0  0  0  0  0  0  0  0  0  0
    5.6039    1.3993   -0.1301 O   0  0  0  0  0  0  0  0  0  0  0  0
    3.3304    1.0690   -0.3716 N   0  0  0  0  0  0  0  0  0  0  0  0
    2.9168    2.4111   -0.5487 C   0  0  0  0  0  0  0  0  0  0  0  0
    1.9619    3.0002    0.2899 C   0  0  0  0  0  0  0  0  0  0  0  0
    1.5626    4.3227    0.0880 C   0  0  0  0  0  0  0  0  0  0  0  0
    2.1258    5.0754   -0.9472 C   0  0  0  0  0  0  0  0  0  0  0  0
    3.0768    4.5012   -1.7943 C   0  0  0  0  0  0  0  0  0  0  0  0
    3.4499    3.1755   -1.5972 C   0  0  0  0  0  0  0  0  0  0  0  0
    4.3277    2.6107   -2.4345 F   0  0  0  0  0  0  0  0  0  0  0  0
    1.0312   -2.1322    1.0468 H   0  0  0  0  0  0  0  0  0  0  0  0
   -0.0464   -4.3781    0.8336 H   0  0  0  0  0  0  0  0  0  0  0  0
    3.0367   -5.6204   -1.8880 H   0  0  0  0  0  0  0  0  0  0  0  0
    4.1249   -3.3774   -1.6879 H   0  0  0  0  0  0  0  0  0  0  0  0
    4.7009   -3.1533    1.0466 H   0  0  0  0  0  0  0  0  0  0  0  0
    6.1157   -2.5598    1.9339 H   0  0  0  0  0  0  0  0  0  0  0  0
    6.1478   -4.2527   -0.6291 H   0  0  0  0  0  0  0  0  0  0  0  0
    6.6234   -4.7707    0.9948 H   0  0  0  0  0  0  0  0  0  0  0  0
    8.6179   -4.1735   -0.4794 H   0  0  0  0  0  0  0  0  0  0  0  0
    8.5390   -3.2061    1.0007 H   0  0  0  0  0  0  0  0  0  0  0  0
    7.5458   -2.3325   -1.7655 H   0  0  0  0  0  0  0  0  0  0  0  0
   10.0279   -2.3336   -1.4927 H   0  0  0  0  0  0  0  0  0  0  0  0
    9.8758   -1.2943   -0.0626 H   0  0  0  0  0  0  0  0  0  0  0  0
    9.0693   -0.5491   -2.6672 H   0  0  0  0  0  0  0  0  0  0  0  0
    7.0605   -0.1446   -0.7082 H   0  0  0  0  0  0  0  0  0  0  0  0
    7.5557   -0.7605    0.8668 H   0  0  0  0  0  0  0  0  0  0  0  0
    1.5309    2.4050    1.0956 H   0  0  0  0  0  0  0  0  0  0  0  0
    0.8139    4.7678    0.7468 H   0  0  0  0  0  0  0  0  0  0  0  0
    1.8230    6.1138   -1.1011 H   0  0  0  0  0  0  0  0  0  0  0  0
    3.5292    5.0568   -2.6179 H   0  0  0  0  0  0  0  0  0  0  0  0
  1  2  2  0
  2  3  1  0
  2 22  1  0
  3  4  1  0
  3 11  2  0
  4  5  2  0
  4 10  1  0
  5  6  1  0
  5 30  1  0
  6  7  2  0
  6 31  1  0
  7  8  1  0
  7  9  1  0
  9 10  2  0
  9 32  1  0
 10 33  1  0
 11 12  1  0
 11 20  1  0
 12 13  1  0
 12 19  1  0
 13 14  1  0
 13 34  1  0
 13 35  1  0
 14 15  1  0
 14 36  1  0
 14 37  1  0
 15 16  1  0
 15 38  1  0
 15 39  1  0
 16 17  1  0
 16 19  1  0
 16 40  1  6
 17 18  1  0
 17 41  1  0
 17 42  1  0
 18 43  1  0
 19 44  1  0
 19 45  1  0
 20 21  2  0
 20 22  1  0
 22 23  1  0
 23 24  2  0
 23 28  1  0
 24 25  1  0
 24 46  1  0
 25 26  2  0
 25 47  1  0
 26 27  1  0
 26 48  1  0
 27 28  2  0
 27 49  1  0
 28 29  1  0
M  END

