
     RDKit          3D

 55 56  0  0  0  0  0  0  0  0999 V2000
    1.4087   -1.6923   -0.5164 C   0  0  0  0  0  0  0  0  0  0  0  0
    1.4683   -0.3537    0.2211 C   0  0  0  0  0  0  0  0  0  0  0  0
    2.5867    0.4806   -0.2110 N   0  0  0  0  0  0  0  0  0  0  0  0
    2.4187    1.1439   -1.5029 C   0  0  0  0  0  0  0  0  0  0  0  0
    1.6034    2.4478   -1.4061 C   0  0  0  0  0  0  0  0  0  0  0  0
    2.1313    3.3844   -0.4206 N   0  0  0  0  0  0  0  0  0  0  0  0
    2.9602    4.5558   -0.7649 C   0  0  1  0  0  0  0  0  0  0  0  0
    4.4763    4.3275   -0.5634 C   0  0  0  0  0  0  0  0  0  0  0  0
    2.7319    4.9906   -2.2205 C   0  0  0  0  0  0  0  0  0  0  0  0
    2.4607    5.7070    0.1624 C   0  0  0  0  0  0  0  0  0  0  0  0
    3.1592    6.9818   -0.0153 N   0  0  0  0  0  0  0  0  0  0  0  0
    3.6632    7.8946    1.3163 S   0  0  1  0  0  0  0  0  0  0  0  0
    3.2607    9.2771    1.0416 O   0  0  0  0  0  0  0  0  0  0  0  0
    3.2577    7.2031    2.5471 O   0  0  0  0  0  0  0  0  0  0  0  0
    5.4889    7.8183    1.2023 C   0  0  0  0  0  0  0  0  0  0  0  0
    6.1543    8.6194    2.2894 C   0  0  0  0  0  0  0  0  0  0  0  0
    6.3338    9.9977    2.0938 C   0  0  0  0  0  0  0  0  0  0  0  0
    6.9338   10.7922    3.0707 C   0  0  0  0  0  0  0  0  0  0  0  0
    7.3610   10.2053    4.2635 C   0  0  0  0  0  0  0  0  0  0  0  0
    7.1770    8.8361    4.4689 C   0  0  0  0  0  0  0  0  0  0  0  0
    6.5699    8.0206    3.5020 C   0  0  0  0  0  0  0  0  0  0  0  0
    6.3677    6.5483    3.7709 C   0  0  0  0  0  0  0  0  0  0  0  0
    2.3104    2.7321    0.8741 C   0  0  0  0  0  0  0  0  0  0  0  0
    3.1115    1.4176    0.7779 C   0  0  0  0  0  0  0  0  0  0  0  0
    0.5889   -2.3146   -0.1224 H   0  0  0  0  0  0  0  0  0  0  0  0
    2.3568   -2.2395   -0.3970 H   0  0  0  0  0  0  0  0  0  0  0  0
    1.2297   -1.5626   -1.5959 H   0  0  0  0  0  0  0  0  0  0  0  0
    1.6063   -0.5528    1.2967 H   0  0  0  0  0  0  0  0  0  0  0  0
    0.4805    0.1518    0.1362 H   0  0  0  0  0  0  0  0  0  0  0  0
    1.9391    0.4506   -2.2125 H   0  0  0  0  0  0  0  0  0  0  0  0
    3.4211    1.3728   -1.9119 H   0  0  0  0  0  0  0  0  0  0  0  0
    0.5644    2.1896   -1.1166 H   0  0  0  0  0  0  0  0  0  0  0  0
    1.5301    2.9168   -2.3948 H   0  0  0  0  0  0  0  0  0  0  0  0
    4.8365    3.5176   -1.2161 H   0  0  0  0  0  0  0  0  0  0  0  0
    4.7145    4.0556    0.4766 H   0  0  0  0  0  0  0  0  0  0  0  0
    5.0424    5.2388   -0.8083 H   0  0  0  0  0  0  0  0  0  0  0  0
    3.1262    4.2593   -2.9418 H   0  0  0  0  0  0  0  0  0  0  0  0
    3.2633    5.9370   -2.3995 H   0  0  0  0  0  0  0  0  0  0  0  0
    1.6635    5.1515   -2.4345 H   0  0  0  0  0  0  0  0  0  0  0  0
    2.5774    5.4177    1.2150 H   0  0  0  0  0  0  0  0  0  0  0  0
    1.3780    5.8276   -0.0088 H   0  0  0  0  0  0  0  0  0  0  0  0
    2.7460    7.6267   -0.6856 H   0  0  0  0  0  0  0  0  0  0  0  0
    5.7094    8.2140    0.2011 H   0  0  0  0  0  0  0  0  0  0  0  0
    5.7383    6.7502    1.2252 H   0  0  0  0  0  0  0  0  0  0  0  0
    5.9848   10.4513    1.1630 H   0  0  0  0  0  0  0  0  0  0  0  0
    7.0652   11.8635    2.9006 H   0  0  0  0  0  0  0  0  0  0  0  0
    7.8351   10.8130    5.0385 H   0  0  0  0  0  0  0  0  0  0  0  0
    7.5072    8.3835    5.4080 H   0  0  0  0  0  0  0  0  0  0  0  0
    6.7190    6.2811    4.7778 H   0  0  0  0  0  0  0  0  0  0  0  0
    6.9229    5.9208    3.0517 H   0  0  0  0  0  0  0  0  0  0  0  0
    5.3029    6.2795    3.6944 H   0  0  0  0  0  0  0  0  0  0  0  0
    1.3125    2.5099    1.3036 H   0  0  0  0  0  0  0  0  0  0  0  0
    2.8008    3.4125    1.5855 H   0  0  0  0  0  0  0  0  0  0  0  0
    3.1429    0.9220    1.7627 H   0  0  0  0  0  0  0  0  0  0  0  0
    4.1557    1.6545    0.5038 H   0  0  0  0  0  0  0  0  0  0  0  0
  1  2  1  0
  1 25  1  0
  1 26  1  0
  1 27  1  0
  2  3  1  0
  2 28  1  0
  2 29  1  0
  3  4  1  0
  3 24  1  0
  4  5  1  0
  4 30  1  0
  4 31  1  0
  5  6  1  0
  5 32  1  0
  5 33  1  0
  6  7  1  0
  6 23  1  0
  7  8  1  6
  7  9  1  0
  7 10  1  0
  8 34  1  0
  8 35  1  0
  8 36  1  0
  9 37  1  0
  9 38  1  0
  9 39  1  0
 10 11  1  0
 10 40  1  0
 10 41  1  0
 12 11  1  6
 11 42  1  0
 12 13  2  0
 12 14  2  0
 12 15  1  0
 15 16  1  0
 15 43  1  0
 15 44  1  0
 16 17  2  0
 16 21  1  0
 17 18  1  0
 17 45  1  0
 18 19  2  0
 18 46  1  0
 19 20  1  0
 19 47  1  0
 20 21  2  0
 20 48  1  0
 21 22  1  0
 22 49  1  0
 22 50  1  0
 22 51  1  0
 23 24  1  0
 23 52  1  0
 23 53  1  0
 24 54  1  0
 24 55  1  0
M  END

