
     RDKit          3D

 36 36  0  0  0  0  0  0  0  0999 V2000
    0.9992    0.1757    0.9826 C   0  0  0  0  0  0  0  0  0  0  0  0
    2.3465    0.2079    0.3093 C   0  0  0  0  0  0  0  0  0  0  0  0
    3.1213    1.3723    0.2647 C   0  0  0  0  0  0  0  0  0  0  0  0
    4.3811    1.4344   -0.3567 C   0  0  0  0  0  0  0  0  0  0  0  0
    5.2329    2.7190   -0.4049 C   0  0  1  0  0  0  0  0  0  0  0  0
    4.5418    3.9031    0.2954 C   0  0  0  0  0  0  0  0  0  0  0  0
    6.5867    2.4680    0.2989 C   0  0  0  0  0  0  0  0  0  0  0  0
    5.4881    3.1147   -1.8778 C   0  0  0  0  0  0  0  0  0  0  0  0
    4.8495    0.2522   -0.9479 C   0  0  0  0  0  0  0  0  0  0  0  0
    4.1060   -0.9310   -0.9243 C   0  0  0  0  0  0  0  0  0  0  0  0
    2.8535   -0.9599   -0.2984 C   0  0  0  0  0  0  0  0  0  0  0  0
    2.0603   -2.0658   -0.2239 O   0  0  0  0  0  0  0  0  0  0  0  0
    2.4999   -3.2939   -0.7845 C   0  0  0  0  0  0  0  0  0  0  0  0
    1.4008   -4.3191   -0.5737 C   0  0  0  0  0  0  0  0  0  0  0  0
    0.2165   -3.9631   -1.3417 N   0  0  0  0  0  0  0  0  0  0  0  0
    0.7622    1.1458    1.4431 H   0  0  0  0  0  0  0  0  0  0  0  0
    0.9605   -0.6001    1.7650 H   0  0  0  0  0  0  0  0  0  0  0  0
    0.1977   -0.0682    0.2647 H   0  0  0  0  0  0  0  0  0  0  0  0
    2.7066    2.2611    0.7423 H   0  0  0  0  0  0  0  0  0  0  0  0
    4.3568    3.6993    1.3618 H   0  0  0  0  0  0  0  0  0  0  0  0
    3.5792    4.1549   -0.1766 H   0  0  0  0  0  0  0  0  0  0  0  0
    5.1824    4.7973    0.2366 H   0  0  0  0  0  0  0  0  0  0  0  0
    6.4367    2.1909    1.3546 H   0  0  0  0  0  0  0  0  0  0  0  0
    7.2134    3.3750    0.2699 H   0  0  0  0  0  0  0  0  0  0  0  0
    7.1539    1.6561   -0.1816 H   0  0  0  0  0  0  0  0  0  0  0  0
    4.5396    3.3075   -2.4041 H   0  0  0  0  0  0  0  0  0  0  0  0
    6.0202    2.3239   -2.4285 H   0  0  0  0  0  0  0  0  0  0  0  0
    6.1012    4.0298   -1.9330 H   0  0  0  0  0  0  0  0  0  0  0  0
    5.8217    0.2357   -1.4467 H   0  0  0  0  0  0  0  0  0  0  0  0
    4.5130   -1.8235   -1.3997 H   0  0  0  0  0  0  0  0  0  0  0  0
    3.4355   -3.6232   -0.2949 H   0  0  0  0  0  0  0  0  0  0  0  0
    2.6904   -3.1726   -1.8662 H   0  0  0  0  0  0  0  0  0  0  0  0
    1.2354   -4.4210    0.5213 H   0  0  0  0  0  0  0  0  0  0  0  0
    1.7815   -5.2928   -0.9281 H   0  0  0  0  0  0  0  0  0  0  0  0
   -0.1310   -3.0588   -1.0209 H   0  0  0  0  0  0  0  0  0  0  0  0
   -0.5322   -4.6357   -1.1791 H   0  0  0  0  0  0  0  0  0  0  0  0
  1  2  1  0
  1 16  1  0
  1 17  1  0
  1 18  1  0
  2  3  2  0
  2 11  1  0
  3  4  1  0
  3 19  1  0
  4  5  1  0
  4  9  2  0
  5  6  1  1
  5  7  1  0
  5  8  1  0
  6 20  1  0
  6 21  1  0
  6 22  1  0
  7 23  1  0
  7 24  1  0
  7 25  1  0
  8 26  1  0
  8 27  1  0
  8 28  1  0
  9 10  1  0
  9 29  1  0
 10 11  2  0
 10 30  1  0
 11 12  1  0
 12 13  1  0
 13 14  1  0
 13 31  1  0
 13 32  1  0
 14 15  1  0
 14 33  1  0
 14 34  1  0
 15 35  1  0
 15 36  1  0
M  END

