
     RDKit          3D

 31 33  0  0  0  0  0  0  0  0999 V2000
    3.1748    0.9201   -0.9976 N   0  0  0  0  0  0  0  0  0  0  0  0
    2.1560   -0.0053   -0.5081 C   0  0  0  0  0  0  0  0  0  0  0  0
    2.7412   -1.3602   -0.2281 C   0  0  0  0  0  0  0  0  0  0  0  0
    4.0708   -1.6458   -0.0302 C   0  0  0  0  0  0  0  0  0  0  0  0
    4.2432   -2.9949    0.2404 N   0  0  0  0  0  0  0  0  0  0  0  0
    5.5289   -3.6498    0.4083 C   0  0  0  0  0  0  0  0  0  0  0  0
    6.2443   -3.9815   -0.8759 C   0  0  0  0  0  0  0  0  0  0  0  0
    5.8118   -5.3551   -1.8561 S   0  0  0  0  0  0  0  0  0  0  0  0
    7.0141   -4.9803   -3.0400 C   0  0  0  0  0  0  0  0  0  0  0  0
    7.7212   -3.8540   -2.7131 C   0  0  0  0  0  0  0  0  0  0  0  0
    7.2726   -3.2913   -1.4790 C   0  0  0  0  0  0  0  0  0  0  0  0
    7.9842   -1.8473   -0.8071 Cl  0  0  0  0  0  0  0  0  0  0  0  0
    3.0058   -3.6121    0.2022 C   0  0  0  0  0  0  0  0  0  0  0  0
    2.6482   -4.9549    0.3945 C   0  0  0  0  0  0  0  0  0  0  0  0
    1.2974   -5.2871    0.3100 C   0  0  0  0  0  0  0  0  0  0  0  0
    0.3191   -4.3078    0.0371 C   0  0  0  0  0  0  0  0  0  0  0  0
    0.6746   -2.9759   -0.1574 C   0  0  0  0  0  0  0  0  0  0  0  0
    2.0316   -2.6083   -0.0818 C   0  0  0  0  0  0  0  0  0  0  0  0
    2.7839    1.8551   -1.1085 H   0  0  0  0  0  0  0  0  0  0  0  0
    3.4964    0.6264   -1.9211 H   0  0  0  0  0  0  0  0  0  0  0  0
    1.2847   -0.1288   -1.1888 H   0  0  0  0  0  0  0  0  0  0  0  0
    1.7389    0.4182    0.4252 H   0  0  0  0  0  0  0  0  0  0  0  0
    4.9236   -0.9717   -0.0653 H   0  0  0  0  0  0  0  0  0  0  0  0
    5.3739   -4.5580    1.0094 H   0  0  0  0  0  0  0  0  0  0  0  0
    6.1833   -2.9872    0.9936 H   0  0  0  0  0  0  0  0  0  0  0  0
    7.1331   -5.6139   -3.9178 H   0  0  0  0  0  0  0  0  0  0  0  0
    8.5269   -3.4296   -3.3116 H   0  0  0  0  0  0  0  0  0  0  0  0
    3.3947   -5.7254    0.6006 H   0  0  0  0  0  0  0  0  0  0  0  0
    0.9920   -6.3263    0.4563 H   0  0  0  0  0  0  0  0  0  0  0  0
   -0.7316   -4.6030   -0.0224 H   0  0  0  0  0  0  0  0  0  0  0  0
   -0.0922   -2.2254   -0.3669 H   0  0  0  0  0  0  0  0  0  0  0  0
  1  2  1  0
  1 19  1  0
  1 20  1  0
  2  3  1  0
  2 21  1  0
  2 22  1  0
  3  4  2  0
  3 18  1  0
  4  5  1  0
  4 23  1  0
  5  6  1  0
  5 13  1  0
  6  7  1  0
  6 24  1  0
  6 25  1  0
  7  8  1  0
  7 11  2  0
  8  9  1  0
  9 10  2  0
  9 26  1  0
 10 11  1  0
 10 27  1  0
 11 12  1  0
 13 14  1  0
 13 18  2  0
 14 15  2  0
 14 28  1  0
 15 16  1  0
 15 29  1  0
 16 17  2  0
 16 30  1  0
 17 18  1  0
 17 31  1  0
M  END

