
     RDKit          3D

 37 38  0  0  0  0  0  0  0  0999 V2000
    5.5240   -2.0751    2.3358 C   0  0  0  0  0  0  0  0  0  0  0  0
    4.5906   -1.3089    1.4300 C   0  0  0  0  0  0  0  0  0  0  0  0
    3.8832   -0.0932    1.9957 C   0  0  0  0  0  0  0  0  0  0  0  0
    4.1883    1.0310    1.6231 O   0  0  0  0  0  0  0  0  0  0  0  0
    2.9224   -0.3071    2.9635 N   0  0  0  0  0  0  0  0  0  0  0  0
    2.2496    0.8483    3.5556 C   0  0  0  0  0  0  0  0  0  0  0  0
    0.7549    0.8436    3.2237 C   0  0  2  0  0  0  0  0  0  0  0  0
   -0.0382    1.8641    4.0357 C   0  0  0  0  0  0  0  0  0  0  0  0
    0.0007    1.5758    5.4139 O   0  0  0  0  0  0  0  0  0  0  0  0
    0.1763   -0.4261    3.5329 O   0  0  0  0  0  0  0  0  0  0  0  0
    0.8098   -1.5030    2.8742 C   0  0  0  0  0  0  0  0  0  0  0  0
    2.2988   -1.6048    3.2493 C   0  0  2  0  0  0  0  0  0  0  0  0
    2.4966   -2.0461    4.7053 C   0  0  0  0  0  0  0  0  0  0  0  0
    4.4734   -1.5645    0.1225 C   0  0  0  0  0  0  0  0  0  0  0  0
    5.0958   -2.5508   -0.8513 C   0  0  0  0  0  0  0  0  0  0  0  0
    4.5773   -1.7233   -1.9642 N   0  0  0  0  0  0  0  0  0  0  0  0
    3.7503   -0.9099   -1.0405 C   0  0  0  0  0  0  0  0  0  0  0  0
    6.2664   -1.3930    2.7850 H   0  0  0  0  0  0  0  0  0  0  0  0
    6.0710   -2.8513    1.7808 H   0  0  0  0  0  0  0  0  0  0  0  0
    5.0007   -2.5665    3.1724 H   0  0  0  0  0  0  0  0  0  0  0  0
    2.7302    1.7487    3.1527 H   0  0  0  0  0  0  0  0  0  0  0  0
    2.3683    0.8427    4.6511 H   0  0  0  0  0  0  0  0  0  0  0  0
    0.6246    1.0490    2.1409 H   0  0  0  0  0  0  0  0  0  0  0  0
   -1.0771    1.8859    3.6504 H   0  0  0  0  0  0  0  0  0  0  0  0
    0.3924    2.8681    3.8920 H   0  0  0  0  0  0  0  0  0  0  0  0
   -0.2955    0.6577    5.5015 H   0  0  0  0  0  0  0  0  0  0  0  0
    0.7211   -1.3814    1.7757 H   0  0  0  0  0  0  0  0  0  0  0  0
    0.2707   -2.4178    3.1657 H   0  0  0  0  0  0  0  0  0  0  0  0
    2.7529   -2.3460    2.5765 H   0  0  0  0  0  0  0  0  0  0  0  0
    1.9482   -1.3940    5.4008 H   0  0  0  0  0  0  0  0  0  0  0  0
    3.5610   -2.0248    4.9824 H   0  0  0  0  0  0  0  0  0  0  0  0
    2.1228   -3.0726    4.8469 H   0  0  0  0  0  0  0  0  0  0  0  0
    4.6617   -3.5695   -0.7769 H   0  0  0  0  0  0  0  0  0  0  0  0
    6.1968   -2.6517   -0.8257 H   0  0  0  0  0  0  0  0  0  0  0  0
    4.0628   -2.2304   -2.6809 H   0  0  0  0  0  0  0  0  0  0  0  0
    2.6630   -1.1306   -1.0638 H   0  0  0  0  0  0  0  0  0  0  0  0
    3.8818    0.1813   -1.1336 H   0  0  0  0  0  0  0  0  0  0  0  0
  1  2  1  0
  1 18  1  0
  1 19  1  0
  1 20  1  0
  2  3  1  0
  2 14  2  0
  3  4  2  0
  3  5  1  0
  5  6  1  0
  5 12  1  0
  6  7  1  0
  6 21  1  0
  6 22  1  0
  7  8  1  0
  7 10  1  0
  7 23  1  6
  8  9  1  0
  8 24  1  0
  8 25  1  0
  9 26  1  0
 10 11  1  0
 11 12  1  0
 11 27  1  0
 11 28  1  0
 12 13  1  0
 12 29  1  6
 13 30  1  0
 13 31  1  0
 13 32  1  0
 14 15  1  0
 14 17  1  0
 15 16  1  0
 15 33  1  0
 15 34  1  0
 16 17  1  0
 16 35  1  0
 17 36  1  0
 17 37  1  0
M  END

