
     RDKit          3D

 32 33  0  0  0  0  0  0  0  0999 V2000
    1.0469    0.1540    0.8897 N   0  0  0  0  0  0  0  0  0  0  0  0
    2.1972    0.1449    0.7318 C   0  0  0  0  0  0  0  0  0  0  0  0
    3.6201    0.1361    0.5343 C   0  0  0  0  0  0  0  0  0  0  0  0
    4.2206    1.0461   -0.3541 C   0  0  0  0  0  0  0  0  0  0  0  0
    5.6033    1.0312   -0.5405 C   0  0  0  0  0  0  0  0  0  0  0  0
    6.4159    0.1194    0.1437 C   0  0  0  0  0  0  0  0  0  0  0  0
    7.9148    0.0732   -0.0249 C   0  0  0  0  0  0  0  0  0  0  0  0
    8.3179    0.9858   -1.0066 O   0  0  0  0  0  0  0  0  0  0  0  0
    9.7290    1.1449   -1.1672 C   0  0  1  0  0  0  0  0  0  0  0  0
   10.3575   -0.0285   -1.9380 C   0  0  0  0  0  0  0  0  0  0  0  0
    9.8933   -0.0493   -3.3966 C   0  0  0  0  0  0  0  0  0  0  0  0
   10.1991    1.2304   -4.0251 N   0  0  0  0  0  0  0  0  0  0  0  0
    9.5118    2.3481   -3.3881 C   0  0  0  0  0  0  0  0  0  0  0  0
    9.9516    2.4567   -1.9251 C   0  0  0  0  0  0  0  0  0  0  0  0
    5.7898   -0.7742    1.0216 C   0  0  0  0  0  0  0  0  0  0  0  0
    6.5591   -1.6546    1.6859 F   0  0  0  0  0  0  0  0  0  0  0  0
    4.4192   -0.7886    1.2329 C   0  0  0  0  0  0  0  0  0  0  0  0
    3.5988    1.7616   -0.8945 H   0  0  0  0  0  0  0  0  0  0  0  0
    6.0800    1.7310   -1.2268 H   0  0  0  0  0  0  0  0  0  0  0  0
    8.2127   -0.9660   -0.2707 H   0  0  0  0  0  0  0  0  0  0  0  0
    8.3974    0.3013    0.9502 H   0  0  0  0  0  0  0  0  0  0  0  0
   10.1897    1.2162   -0.1615 H   0  0  0  0  0  0  0  0  0  0  0  0
   10.1258   -0.9878   -1.4467 H   0  0  0  0  0  0  0  0  0  0  0  0
   11.4534    0.0907   -1.9092 H   0  0  0  0  0  0  0  0  0  0  0  0
    8.8072   -0.2935   -3.4201 H   0  0  0  0  0  0  0  0  0  0  0  0
   10.4168   -0.8506   -3.9431 H   0  0  0  0  0  0  0  0  0  0  0  0
    9.9864    1.2000   -5.0199 H   0  0  0  0  0  0  0  0  0  0  0  0
    8.4038    2.2491   -3.4220 H   0  0  0  0  0  0  0  0  0  0  0  0
    9.7695    3.2772   -3.9222 H   0  0  0  0  0  0  0  0  0  0  0  0
    9.4060    3.2665   -1.4152 H   0  0  0  0  0  0  0  0  0  0  0  0
   11.0269    2.6968   -1.8914 H   0  0  0  0  0  0  0  0  0  0  0  0
    3.9861   -1.5079    1.9287 H   0  0  0  0  0  0  0  0  0  0  0  0
  1  2  3  0
  2  3  1  0
  3  4  2  0
  3 17  1  0
  4  5  1  0
  4 18  1  0
  5  6  2  0
  5 19  1  0
  6  7  1  0
  6 15  1  0
  7  8  1  0
  7 20  1  0
  7 21  1  0
  8  9  1  0
  9 10  1  0
  9 14  1  0
  9 22  1  1
 10 11  1  0
 10 23  1  0
 10 24  1  0
 11 12  1  0
 11 25  1  0
 11 26  1  0
 12 13  1  0
 12 27  1  0
 13 14  1  0
 13 28  1  0
 13 29  1  0
 14 30  1  0
 14 31  1  0
 15 16  1  0
 15 17  2  0
 17 32  1  0
M  END

