
     RDKit          3D

 42 44  0  0  0  0  0  0  0  0999 V2000
   10.2543   -2.6480   -1.6298 C   0  0  0  0  0  0  0  0  0  0  0  0
    9.0907   -1.9944   -0.9648 C   0  0  0  0  0  0  0  0  0  0  0  0
    9.1650   -1.0526   -0.0522 N   0  0  0  0  0  0  0  0  0  0  0  0
    7.8890   -0.7180    0.3116 N   0  0  0  0  0  0  0  0  0  0  0  0
    7.0625   -1.4581   -0.3888 C   0  0  0  0  0  0  0  0  0  0  0  0
    5.5686   -1.3944   -0.3062 C   0  0  0  0  0  0  0  0  0  0  0  0
    4.9609   -2.6484    0.1134 N   0  0  0  0  0  0  0  0  0  0  0  0
    3.5053   -2.6745    0.0329 C   0  0  0  0  0  0  0  0  0  0  0  0
    3.1253   -3.9762    0.7545 C   0  0  0  0  0  0  0  0  0  0  0  0
    4.3027   -4.2518    1.7549 C   0  0  2  0  0  0  0  0  0  0  0  0
    5.0080   -5.5926    1.4379 C   0  0  0  0  0  0  0  0  0  0  0  0
    4.1550   -6.8213    1.7768 C   0  0  0  0  0  0  0  0  0  0  0  0
    3.7154   -6.8029    3.2457 C   0  0  0  0  0  0  0  0  0  0  0  0
    2.9959   -5.4934    3.5913 C   0  0  0  0  0  0  0  0  0  0  0  0
    3.8420   -4.2654    3.2287 C   0  0  0  0  0  0  0  0  0  0  0  0
    5.2559   -3.0605    1.4829 C   0  0  0  0  0  0  0  0  0  0  0  0
    7.7724   -2.2976   -1.2176 N   0  0  0  0  0  0  0  0  0  0  0  0
    7.2413   -3.2559   -2.1696 C   0  0  0  0  0  0  0  0  0  0  0  0
   11.1719   -2.2000   -1.2272 H   0  0  0  0  0  0  0  0  0  0  0  0
   10.2439   -2.5016   -2.7230 H   0  0  0  0  0  0  0  0  0  0  0  0
   10.2852   -3.7342   -1.4384 H   0  0  0  0  0  0  0  0  0  0  0  0
    5.1497   -1.1307   -1.2940 H   0  0  0  0  0  0  0  0  0  0  0  0
    5.3322   -0.5533    0.3802 H   0  0  0  0  0  0  0  0  0  0  0  0
    3.1641   -2.6371   -1.0151 H   0  0  0  0  0  0  0  0  0  0  0  0
    3.0585   -1.7964    0.5543 H   0  0  0  0  0  0  0  0  0  0  0  0
    3.0304   -4.7986    0.0293 H   0  0  0  0  0  0  0  0  0  0  0  0
    2.1532   -3.8837    1.2615 H   0  0  0  0  0  0  0  0  0  0  0  0
    5.9422   -5.6407    2.0269 H   0  0  0  0  0  0  0  0  0  0  0  0
    5.3077   -5.6048    0.3764 H   0  0  0  0  0  0  0  0  0  0  0  0
    4.7204   -7.7424    1.5554 H   0  0  0  0  0  0  0  0  0  0  0  0
    3.2607   -6.8490    1.1278 H   0  0  0  0  0  0  0  0  0  0  0  0
    4.6069   -6.9092    3.8916 H   0  0  0  0  0  0  0  0  0  0  0  0
    3.0673   -7.6678    3.4667 H   0  0  0  0  0  0  0  0  0  0  0  0
    2.7397   -5.4667    4.6638 H   0  0  0  0  0  0  0  0  0  0  0  0
    2.0344   -5.4540    3.0474 H   0  0  0  0  0  0  0  0  0  0  0  0
    4.7395   -4.2447    3.8749 H   0  0  0  0  0  0  0  0  0  0  0  0
    3.2848   -3.3386    3.4501 H   0  0  0  0  0  0  0  0  0  0  0  0
    6.3182   -3.3242    1.6021 H   0  0  0  0  0  0  0  0  0  0  0  0
    5.0449   -2.2321    2.1975 H   0  0  0  0  0  0  0  0  0  0  0  0
    6.2626   -3.5997   -1.8090 H   0  0  0  0  0  0  0  0  0  0  0  0
    7.9149   -4.1212   -2.2458 H   0  0  0  0  0  0  0  0  0  0  0  0
    7.1304   -2.8105   -3.1727 H   0  0  0  0  0  0  0  0  0  0  0  0
  1  2  1  0
  1 19  1  0
  1 20  1  0
  1 21  1  0
  2  3  2  0
  2 17  1  0
  3  4  1  0
  4  5  2  0
  5  6  1  0
  5 17  1  0
  6  7  1  0
  6 22  1  0
  6 23  1  0
  7  8  1  0
  7 16  1  0
  8  9  1  0
  8 24  1  0
  8 25  1  0
 10  9  1  6
  9 26  1  0
  9 27  1  0
 10 11  1  0
 10 15  1  0
 10 16  1  0
 11 12  1  0
 11 28  1  0
 11 29  1  0
 12 13  1  0
 12 30  1  0
 12 31  1  0
 13 14  1  0
 13 32  1  0
 13 33  1  0
 14 15  1  0
 14 34  1  0
 14 35  1  0
 15 36  1  0
 15 37  1  0
 16 38  1  0
 16 39  1  0
 17 18  1  0
 18 40  1  0
 18 41  1  0
 18 42  1  0
M  END

