
     RDKit          3D

 91 93  0  0  0  0  0  0  0  0999 V2000
   -0.9096   -2.1181    8.4230 C   0  0  0  0  0  0  0  0  0  0  0  0
    0.5747   -2.3484    8.7108 C   0  0  0  0  0  0  0  0  0  0  0  0
    1.4603   -1.1465    8.3675 C   0  0  0  0  0  0  0  0  0  0  0  0
    2.9485   -1.3685    8.6526 C   0  0  0  0  0  0  0  0  0  0  0  0
    3.8332   -0.1665    8.3086 C   0  0  0  0  0  0  0  0  0  0  0  0
    5.3216   -0.3886    8.5936 C   0  0  0  0  0  0  0  0  0  0  0  0
    6.2055    0.8136    8.2482 C   0  0  0  0  0  0  0  0  0  0  0  0
    7.6941    0.5921    8.5328 C   0  0  0  0  0  0  0  0  0  0  0  0
    8.5763    1.7947    8.1852 C   0  0  0  0  0  0  0  0  0  0  0  0
   10.0649    1.5727    8.4699 C   0  0  0  0  0  0  0  0  0  0  0  0
   10.9398    2.7790    8.1172 C   0  0  0  0  0  0  0  0  0  0  0  0
   12.4104    2.5386    8.4070 C   0  0  0  0  0  0  0  0  0  0  0  0
   13.1360    3.7230    8.0416 O   0  0  0  0  0  0  0  0  0  0  0  0
   14.4524    3.6919    8.2265 C   0  0  0  0  0  0  0  0  0  0  0  0
   15.1656    2.7115    8.7044 N   0  0  0  0  0  0  0  0  0  0  0  0
   16.4714    3.1908    8.6894 C   0  0  0  0  0  0  0  0  0  0  0  0
   17.6609    2.5669    9.0708 C   0  0  0  0  0  0  0  0  0  0  0  0
   18.8696    3.2801    8.9719 C   0  0  0  0  0  0  0  0  0  0  0  0
   20.0379    2.6171    9.3734 N   0  0  0  0  0  0  0  0  0  0  0  0
   21.0273    3.2506    9.8854 C   0  0  0  0  0  0  0  0  0  0  0  0
   22.2762    2.5800   10.2543 C   0  0  0  0  0  0  0  0  0  0  0  0
   22.4607    1.1973   10.0428 C   0  0  0  0  0  0  0  0  0  0  0  0
   23.6339    0.5493   10.3893 C   0  0  0  0  0  0  0  0  0  0  0  0
   24.6887    1.2818   10.9714 C   0  0  0  0  0  0  0  0  0  0  0  0
   25.8039    0.5819   11.2817 O   0  0  0  0  0  0  0  0  0  0  0  0
   26.9163    1.2336   11.8730 C   0  0  0  0  0  0  0  0  0  0  0  0
   28.0084    0.2009   12.1039 C   0  0  0  0  0  0  0  0  0  0  0  0
   29.2656    0.7953   12.7443 C   0  0  0  0  0  0  0  0  0  0  0  0
   30.3751   -0.2338   12.9818 C   0  0  0  0  0  0  0  0  0  0  0  0
   31.6355    0.3540   13.6229 C   0  0  0  0  0  0  0  0  0  0  0  0
   32.7465   -0.6726   13.8614 C   0  0  0  0  0  0  0  0  0  0  0  0
   34.0076   -0.0855   14.5032 C   0  0  0  0  0  0  0  0  0  0  0  0
   35.1123   -1.1167   14.7380 C   0  0  0  0  0  0  0  0  0  0  0  0
   24.5380    2.6577   11.1943 C   0  0  0  0  0  0  0  0  0  0  0  0
   23.3407    3.2987   10.8385 C   0  0  0  0  0  0  0  0  0  0  0  0
   23.1748    4.6318   11.0467 O   0  0  0  0  0  0  0  0  0  0  0  0
   18.8710    4.5981    8.4433 C   0  0  0  0  0  0  0  0  0  0  0  0
   17.6935    5.2288    8.0376 C   0  0  0  0  0  0  0  0  0  0  0  0
   16.5030    4.5164    8.1773 C   0  0  0  0  0  0  0  0  0  0  0  0
   15.1763    4.8094    7.8849 N   0  0  0  0  0  0  0  0  0  0  0  0
   14.7935    5.6636    7.5019 H   0  0  0  0  0  0  0  0  0  0  0  0
   -1.5152   -3.0015    8.6815 H   0  0  0  0  0  0  0  0  0  0  0  0
   -1.0818   -1.8978    7.3559 H   0  0  0  0  0  0  0  0  0  0  0  0
   -1.3026   -1.2649    9.0013 H   0  0  0  0  0  0  0  0  0  0  0  0
    0.9272   -3.2312    8.1465 H   0  0  0  0  0  0  0  0  0  0  0  0
    0.7082   -2.6039    9.7779 H   0  0  0  0  0  0  0  0  0  0  0  0
    1.1085   -0.2624    8.9318 H   0  0  0  0  0  0  0  0  0  0  0  0
    1.3275   -0.8900    7.2996 H   0  0  0  0  0  0  0  0  0  0  0  0
    3.2997   -2.2528    8.0885 H   0  0  0  0  0  0  0  0  0  0  0  0
    3.0809   -1.6247    9.7204 H   0  0  0  0  0  0  0  0  0  0  0  0
    3.4822    0.7178    8.8726 H   0  0  0  0  0  0  0  0  0  0  0  0
    3.7009    0.0897    7.2408 H   0  0  0  0  0  0  0  0  0  0  0  0
    5.6728   -1.2731    8.0301 H   0  0  0  0  0  0  0  0  0  0  0  0
    5.4544   -0.6439    9.6615 H   0  0  0  0  0  0  0  0  0  0  0  0
    5.8544    1.6982    8.8117 H   0  0  0  0  0  0  0  0  0  0  0  0
    6.0727    1.0688    7.1803 H   0  0  0  0  0  0  0  0  0  0  0  0
    8.0455   -0.2927    7.9700 H   0  0  0  0  0  0  0  0  0  0  0  0
    7.8277    0.3383    9.6009 H   0  0  0  0  0  0  0  0  0  0  0  0
    8.2262    2.6798    8.7481 H   0  0  0  0  0  0  0  0  0  0  0  0
    8.4440    2.0484    7.1171 H   0  0  0  0  0  0  0  0  0  0  0  0
   10.4152    0.6873    7.9079 H   0  0  0  0  0  0  0  0  0  0  0  0
   10.1980    1.3213    9.5383 H   0  0  0  0  0  0  0  0  0  0  0  0
   10.6059    3.6666    8.6828 H   0  0  0  0  0  0  0  0  0  0  0  0
   10.8241    3.0301    7.0483 H   0  0  0  0  0  0  0  0  0  0  0  0
   12.8088    1.6836    7.8355 H   0  0  0  0  0  0  0  0  0  0  0  0
   12.5907    2.3223    9.4734 H   0  0  0  0  0  0  0  0  0  0  0  0
   17.6682    1.5452    9.4523 H   0  0  0  0  0  0  0  0  0  0  0  0
   20.9880    4.3350   10.0888 H   0  0  0  0  0  0  0  0  0  0  0  0
   21.6307    0.6501    9.5913 H   0  0  0  0  0  0  0  0  0  0  0  0
   23.7717   -0.5206   10.2247 H   0  0  0  0  0  0  0  0  0  0  0  0
   26.6162    1.7025   12.8300 H   0  0  0  0  0  0  0  0  0  0  0  0
   27.2800    2.0413   11.2088 H   0  0  0  0  0  0  0  0  0  0  0  0
   28.2581   -0.2662   11.1357 H   0  0  0  0  0  0  0  0  0  0  0  0
   27.6005   -0.6034   12.7400 H   0  0  0  0  0  0  0  0  0  0  0  0
   29.0000    1.2709   13.7068 H   0  0  0  0  0  0  0  0  0  0  0  0
   29.6564    1.6089   12.1050 H   0  0  0  0  0  0  0  0  0  0  0  0
   30.6413   -0.7098   12.0200 H   0  0  0  0  0  0  0  0  0  0  0  0
   29.9851   -1.0478   13.6203 H   0  0  0  0  0  0  0  0  0  0  0  0
   31.3672    0.8307   14.5842 H   0  0  0  0  0  0  0  0  0  0  0  0
   32.0235    1.1691   12.9837 H   0  0  0  0  0  0  0  0  0  0  0  0
   33.0155   -1.1494   12.9001 H   0  0  0  0  0  0  0  0  0  0  0  0
   32.3589   -1.4882   14.5002 H   0  0  0  0  0  0  0  0  0  0  0  0
   33.7373    0.3908   15.4634 H   0  0  0  0  0  0  0  0  0  0  0  0
   34.3935    0.7297   13.8641 H   0  0  0  0  0  0  0  0  0  0  0  0
   34.7701   -1.9263   15.4046 H   0  0  0  0  0  0  0  0  0  0  0  0
   36.0020   -0.6599   15.2000 H   0  0  0  0  0  0  0  0  0  0  0  0
   35.4322   -1.5843   13.7916 H   0  0  0  0  0  0  0  0  0  0  0  0
   25.3381    3.2487   11.6435 H   0  0  0  0  0  0  0  0  0  0  0  0
   23.9702    4.9983   11.4535 H   0  0  0  0  0  0  0  0  0  0  0  0
   19.8218    5.1200    8.3190 H   0  0  0  0  0  0  0  0  0  0  0  0
   17.7165    6.2369    7.6163 H   0  0  0  0  0  0  0  0  0  0  0  0
  1  2  1  0
  1 42  1  0
  1 43  1  0
  1 44  1  0
  2  3  1  0
  2 45  1  0
  2 46  1  0
  3  4  1  0
  3 47  1  0
  3 48  1  0
  4  5  1  0
  4 49  1  0
  4 50  1  0
  5  6  1  0
  5 51  1  0
  5 52  1  0
  6  7  1  0
  6 53  1  0
  6 54  1  0
  7  8  1  0
  7 55  1  0
  7 56  1  0
  8  9  1  0
  8 57  1  0
  8 58  1  0
  9 10  1  0
  9 59  1  0
  9 60  1  0
 10 11  1  0
 10 61  1  0
 10 62  1  0
 11 12  1  0
 11 63  1  0
 11 64  1  0
 12 13  1  0
 12 65  1  0
 12 66  1  0
 13 14  1  0
 14 15  2  0
 14 40  1  0
 15 16  1  0
 16 17  2  0
 16 39  1  0
 17 18  1  0
 17 67  1  0
 18 19  1  0
 18 37  2  0
 19 20  2  0
 20 21  1  0
 20 68  1  0
 21 22  2  0
 21 35  1  0
 22 23  1  0
 22 69  1  0
 23 24  2  0
 23 70  1  0
 24 25  1  0
 24 34  1  0
 25 26  1  0
 26 27  1  0
 26 71  1  0
 26 72  1  0
 27 28  1  0
 27 73  1  0
 27 74  1  0
 28 29  1  0
 28 75  1  0
 28 76  1  0
 29 30  1  0
 29 77  1  0
 29 78  1  0
 30 31  1  0
 30 79  1  0
 30 80  1  0
 31 32  1  0
 31 81  1  0
 31 82  1  0
 32 33  1  0
 32 83  1  0
 32 84  1  0
 33 85  1  0
 33 86  1  0
 33 87  1  0
 34 35  2  0
 34 88  1  0
 35 36  1  0
 36 89  1  0
 37 38  1  0
 37 90  1  0
 38 39  2  0
 38 91  1  0
 39 40  1  0
 40 41  1  0
M  END

