
     RDKit          3D

 30 29  0  0  0  0  0  0  0  0999 V2000
    2.7541   -3.3149   -0.2114 C   0  0  0  0  0  0  0  0  0  0  0  0
    2.2110   -1.9104   -0.4790 C   0  0  0  0  0  0  0  0  0  0  0  0
    2.5955   -0.8681    0.5817 C   0  0  0  0  0  0  0  0  0  0  0  0
    4.0458   -0.6985    0.7555 N   0  0  0  0  0  0  0  0  0  0  0  0
    4.7633    0.0286   -0.2963 C   0  0  0  0  0  0  0  0  0  0  0  0
    4.4207    1.5304   -0.4064 C   0  0  1  0  0  0  0  0  0  0  0  0
    4.6596    2.2931    0.9003 C   0  0  0  0  0  0  0  0  0  0  0  0
    5.2164    2.1383   -1.5687 C   0  0  0  0  0  0  0  0  0  0  0  0
    4.6038   -1.2964    1.8483 C   0  0  0  0  0  0  0  0  0  0  0  0
    3.9817   -1.8888    2.7085 O   0  0  0  0  0  0  0  0  0  0  0  0
    6.1556   -1.2547    1.9928 C   0  0  1  0  0  0  0  0  0  0  0  0
    6.7550   -1.8728    0.9534 F   0  0  0  0  0  0  0  0  0  0  0  0
    6.6377    0.0036    2.0487 F   0  0  0  0  0  0  0  0  0  0  0  0
    6.5233   -1.8765    3.1021 F   0  0  0  0  0  0  0  0  0  0  0  0
    2.4062   -4.0244   -0.9786 H   0  0  0  0  0  0  0  0  0  0  0  0
    2.4332   -3.6892    0.7732 H   0  0  0  0  0  0  0  0  0  0  0  0
    3.8559   -3.3301   -0.2245 H   0  0  0  0  0  0  0  0  0  0  0  0
    1.1078   -1.9345   -0.5173 H   0  0  0  0  0  0  0  0  0  0  0  0
    2.5326   -1.5688   -1.4791 H   0  0  0  0  0  0  0  0  0  0  0  0
    2.1925   -1.1624    1.5590 H   0  0  0  0  0  0  0  0  0  0  0  0
    2.1577    0.1081    0.3211 H   0  0  0  0  0  0  0  0  0  0  0  0
    4.5397   -0.4562   -1.2624 H   0  0  0  0  0  0  0  0  0  0  0  0
    5.8428   -0.0803   -0.1504 H   0  0  0  0  0  0  0  0  0  0  0  0
    3.3491    1.6184   -0.6615 H   0  0  0  0  0  0  0  0  0  0  0  0
    5.7225    2.2664    1.1885 H   0  0  0  0  0  0  0  0  0  0  0  0
    4.0784    1.8683    1.7334 H   0  0  0  0  0  0  0  0  0  0  0  0
    4.3650    3.3492    0.7926 H   0  0  0  0  0  0  0  0  0  0  0  0
    6.3014    2.0915   -1.3737 H   0  0  0  0  0  0  0  0  0  0  0  0
    4.9517    3.1968   -1.7171 H   0  0  0  0  0  0  0  0  0  0  0  0
    5.0238    1.6098   -2.5169 H   0  0  0  0  0  0  0  0  0  0  0  0
  1  2  1  0
  1 15  1  0
  1 16  1  0
  1 17  1  0
  2  3  1  0
  2 18  1  0
  2 19  1  0
  3  4  1  0
  3 20  1  0
  3 21  1  0
  4  5  1  0
  4  9  1  0
  5  6  1  0
  5 22  1  0
  5 23  1  0
  6  7  1  0
  6  8  1  0
  6 24  1  6
  7 25  1  0
  7 26  1  0
  7 27  1  0
  8 28  1  0
  8 29  1  0
  8 30  1  0
  9 10  2  0
  9 11  1  0
 11 12  1  6
 11 13  1  0
 11 14  1  0
M  END

