
     RDKit          3D

 34 34  0  0  0  0  0  0  0  0999 V2000
    0.8069    0.0539   -0.1781 C   0  0  0  0  0  0  0  0  0  0  0  0
    2.2100   -0.3657    0.2270 C   0  0  0  0  0  0  0  0  0  0  0  0
    2.9962   -0.4363   -0.9406 O   0  0  0  0  0  0  0  0  0  0  0  0
    4.4048   -0.6560   -0.8211 C   0  0  1  0  0  0  0  0  0  0  0  0
    5.1007    0.6739   -0.4827 C   0  0  0  0  0  0  0  0  0  0  0  0
    4.7885   -1.7275    0.2095 C   0  0  0  0  0  0  0  0  0  0  0  0
    4.8095   -1.0649   -2.2580 C   0  0  1  0  0  0  0  0  0  0  0  0
    6.2211   -1.2089   -2.3030 O   0  0  0  0  0  0  0  0  0  0  0  0
    4.1436   -2.3082   -2.8467 C   0  0  0  0  0  0  0  0  0  0  0  0
    3.3528   -3.1135   -2.1558 N   0  0  0  0  0  0  0  0  0  0  0  0
    2.8130   -4.1775   -2.7701 C   0  0  0  0  0  0  0  0  0  0  0  0
    3.0625   -4.4414   -4.1105 C   0  0  0  0  0  0  0  0  0  0  0  0
    3.8719   -3.6528   -4.8333 N   0  0  0  0  0  0  0  0  0  0  0  0
    4.4059   -2.6193   -4.2161 C   0  0  0  0  0  0  0  0  0  0  0  0
    5.2528   -1.8028   -4.8845 O   0  0  0  0  0  0  0  0  0  0  0  0
    5.4890   -2.0699   -6.2654 C   0  0  0  0  0  0  0  0  0  0  0  0
    0.1462    0.1052    0.7020 H   0  0  0  0  0  0  0  0  0  0  0  0
    0.3834   -0.6697   -0.8920 H   0  0  0  0  0  0  0  0  0  0  0  0
    0.8218    1.0422   -0.6637 H   0  0  0  0  0  0  0  0  0  0  0  0
    2.1751   -1.3455    0.7411 H   0  0  0  0  0  0  0  0  0  0  0  0
    2.6267    0.3640    0.9506 H   0  0  0  0  0  0  0  0  0  0  0  0
    4.8062    1.0218    0.5195 H   0  0  0  0  0  0  0  0  0  0  0  0
    4.8169    1.4480   -1.2126 H   0  0  0  0  0  0  0  0  0  0  0  0
    6.1927    0.5566   -0.5017 H   0  0  0  0  0  0  0  0  0  0  0  0
    4.6517   -1.3579    1.2374 H   0  0  0  0  0  0  0  0  0  0  0  0
    5.8515   -1.9770    0.0796 H   0  0  0  0  0  0  0  0  0  0  0  0
    4.1954   -2.6390    0.0694 H   0  0  0  0  0  0  0  0  0  0  0  0
    4.4901   -0.2215   -2.9018 H   0  0  0  0  0  0  0  0  0  0  0  0
    6.4661   -1.2560   -3.2379 H   0  0  0  0  0  0  0  0  0  0  0  0
    2.1642   -4.8285   -2.1751 H   0  0  0  0  0  0  0  0  0  0  0  0
    2.6099   -5.2997   -4.6187 H   0  0  0  0  0  0  0  0  0  0  0  0
    4.5504   -2.0330   -6.8386 H   0  0  0  0  0  0  0  0  0  0  0  0
    5.9403   -3.0641   -6.4048 H   0  0  0  0  0  0  0  0  0  0  0  0
    6.1763   -1.2869   -6.6101 H   0  0  0  0  0  0  0  0  0  0  0  0
  1  2  1  0
  1 17  1  0
  1 18  1  0
  1 19  1  0
  2  3  1  0
  2 20  1  0
  2 21  1  0
  4  3  1  6
  4  5  1  0
  4  6  1  0
  4  7  1  0
  5 22  1  0
  5 23  1  0
  5 24  1  0
  6 25  1  0
  6 26  1  0
  6 27  1  0
  7  8  1  0
  7  9  1  0
  7 28  1  6
  8 29  1  0
  9 10  2  0
  9 14  1  0
 10 11  1  0
 11 12  2  0
 11 30  1  0
 12 13  1  0
 12 31  1  0
 13 14  2  0
 14 15  1  0
 15 16  1  0
 16 32  1  0
 16 33  1  0
 16 34  1  0
M  END

