
     RDKit          3D

 43 44  0  0  0  0  0  0  0  0999 V2000
    0.5806    1.5455    1.4960 C   0  0  0  0  0  0  0  0  0  0  0  0
    2.0705    1.7979    1.3658 C   0  0  0  0  0  0  0  0  0  0  0  0
    2.7530    0.6191    1.7611 O   0  0  0  0  0  0  0  0  0  0  0  0
    4.1094    0.5836    1.7371 C   0  0  0  0  0  0  0  0  0  0  0  0
    4.9294    1.6504    1.3394 C   0  0  0  0  0  0  0  0  0  0  0  0
    6.3219    1.4994    1.3556 C   0  0  0  0  0  0  0  0  0  0  0  0
    6.9314    0.3064    1.7575 C   0  0  0  0  0  0  0  0  0  0  0  0
    8.4485    0.1650    1.8409 C   0  0  1  0  0  0  0  0  0  0  0  0
    8.9556    0.4165    3.2920 C   0  0  1  0  0  0  0  0  0  0  0  0
    8.6304    1.8190    3.8093 C   0  0  0  0  0  0  0  0  0  0  0  0
    8.5178   -0.5772    4.2004 O   0  0  0  0  0  0  0  0  0  0  0  0
    8.8576   -1.1365    1.3020 N   0  0  0  0  0  0  0  0  0  0  0  0
   10.1412   -1.6822    1.7324 C   0  0  0  0  0  0  0  0  0  0  0  0
   10.3255   -3.0984    1.1880 C   0  0  0  0  0  0  0  0  0  0  0  0
   10.2122   -3.0968   -0.2622 N   0  0  0  0  0  0  0  0  0  0  0  0
    8.9115   -2.6002   -0.6831 C   0  0  0  0  0  0  0  0  0  0  0  0
    8.7147   -1.1840   -0.1505 C   0  0  0  0  0  0  0  0  0  0  0  0
    6.0927   -0.7599    2.1377 C   0  0  0  0  0  0  0  0  0  0  0  0
    4.7076   -0.6262    2.1336 C   0  0  0  0  0  0  0  0  0  0  0  0
    0.0144    2.4414    1.1977 H   0  0  0  0  0  0  0  0  0  0  0  0
    0.3181    1.2968    2.5357 H   0  0  0  0  0  0  0  0  0  0  0  0
    0.2710    0.7070    0.8536 H   0  0  0  0  0  0  0  0  0  0  0  0
    2.3810    2.6476    2.0035 H   0  0  0  0  0  0  0  0  0  0  0  0
    2.3341    2.0566    0.3224 H   0  0  0  0  0  0  0  0  0  0  0  0
    4.5009    2.5973    1.0106 H   0  0  0  0  0  0  0  0  0  0  0  0
    6.9447    2.3407    1.0372 H   0  0  0  0  0  0  0  0  0  0  0  0
    8.8959    0.9903    1.2393 H   0  0  0  0  0  0  0  0  0  0  0  0
   10.0524    0.3221    3.2737 H   0  0  0  0  0  0  0  0  0  0  0  0
    7.5438    1.9814    3.8862 H   0  0  0  0  0  0  0  0  0  0  0  0
    9.0451    2.6017    3.1537 H   0  0  0  0  0  0  0  0  0  0  0  0
    9.0662    1.9411    4.8123 H   0  0  0  0  0  0  0  0  0  0  0  0
    7.5495   -0.5783    4.1956 H   0  0  0  0  0  0  0  0  0  0  0  0
   10.1625   -1.7328    2.8285 H   0  0  0  0  0  0  0  0  0  0  0  0
   10.9989   -1.0579    1.3892 H   0  0  0  0  0  0  0  0  0  0  0  0
    9.5716   -3.7550    1.6794 H   0  0  0  0  0  0  0  0  0  0  0  0
   11.3242   -3.4655    1.4765 H   0  0  0  0  0  0  0  0  0  0  0  0
   10.3868   -4.0257   -0.6406 H   0  0  0  0  0  0  0  0  0  0  0  0
    8.0677   -3.2301   -0.3191 H   0  0  0  0  0  0  0  0  0  0  0  0
    8.8628   -2.5836   -1.7846 H   0  0  0  0  0  0  0  0  0  0  0  0
    7.7100   -0.8266   -0.4237 H   0  0  0  0  0  0  0  0  0  0  0  0
    9.4526   -0.5110   -0.6466 H   0  0  0  0  0  0  0  0  0  0  0  0
    6.5515   -1.7148    2.4037 H   0  0  0  0  0  0  0  0  0  0  0  0
    4.0563   -1.4535    2.4239 H   0  0  0  0  0  0  0  0  0  0  0  0
  1  2  1  0
  1 20  1  0
  1 21  1  0
  1 22  1  0
  2  3  1  0
  2 23  1  0
  2 24  1  0
  3  4  1  0
  4  5  2  0
  4 19  1  0
  5  6  1  0
  5 25  1  0
  6  7  2  0
  6 26  1  0
  7  8  1  0
  7 18  1  0
  8  9  1  0
  8 12  1  0
  8 27  1  6
  9 10  1  0
  9 11  1  0
  9 28  1  6
 10 29  1  0
 10 30  1  0
 10 31  1  0
 11 32  1  0
 12 13  1  0
 12 17  1  0
 13 14  1  0
 13 33  1  0
 13 34  1  0
 14 15  1  0
 14 35  1  0
 14 36  1  0
 15 16  1  0
 15 37  1  0
 16 17  1  0
 16 38  1  0
 16 39  1  0
 17 40  1  0
 17 41  1  0
 18 19  2  0
 18 42  1  0
 19 43  1  0
M  END

