
     RDKit          3D

 53 56  0  0  0  0  0  0  0  0999 V2000
    7.1150   -1.1896    0.7450 C   0  0  0  0  0  0  0  0  0  0  0  0
    5.6551   -0.8001    0.8191 C   0  0  2  0  0  0  0  0  0  0  0  0
    5.3617   -0.1537   -0.0228 H   0  0  0  0  0  0  0  0  0  0  0  0
    5.4742   -0.0248    2.0423 O   0  0  0  0  0  0  0  0  0  0  0  0
    4.5375    0.9223    2.0777 C   0  0  0  0  0  0  0  0  0  0  0  0
    3.7630    1.1733    1.1846 O   0  0  0  0  0  0  0  0  0  0  0  0
    4.5989    1.6771    3.4066 C   0  0  0  0  0  0  0  0  0  0  0  0
    3.4385    2.4815    3.6760 N   0  0  0  0  0  0  0  0  0  0  0  0
    3.0743    3.6581    3.0288 C   0  0  0  0  0  0  0  0  0  0  0  0
    3.8287    4.5017    2.2347 C   0  0  0  0  0  0  0  0  0  0  0  0
    3.2246    5.6895    1.7336 C   0  0  0  0  0  0  0  0  0  0  0  0
    1.9140    6.0395    2.0023 C   0  0  0  0  0  0  0  0  0  0  0  0
    1.1094    5.1818    2.8080 C   0  0  0  0  0  0  0  0  0  0  0  0
   -0.2513    5.3838    3.1736 C   0  0  0  0  0  0  0  0  0  0  0  0
   -0.9292    4.4660    3.9638 C   0  0  0  0  0  0  0  0  0  0  0  0
   -0.3064    3.2829    4.4407 C   0  0  0  0  0  0  0  0  0  0  0  0
    1.0108    3.0828    4.0882 C   0  0  0  0  0  0  0  0  0  0  0  0
    1.7178    4.0007    3.2970 C   0  0  0  0  0  0  0  0  0  0  0  0
    2.0950    1.7199    4.4927 S   0  0  1  0  0  0  0  0  0  0  0  0
    1.7469    0.4875    3.7823 O   0  0  0  0  0  0  0  0  0  0  0  0
    2.3867    1.6424    5.9202 O   0  0  0  0  0  0  0  0  0  0  0  0
    4.7216   -2.0384    0.8563 C   0  0  0  0  0  0  0  0  0  0  0  0
    5.1765   -3.1650    0.9703 O   0  0  0  0  0  0  0  0  0  0  0  0
    3.4008   -1.7472    0.7500 N   0  0  0  0  0  0  0  0  0  0  0  0
    2.3536   -2.7672    0.8403 C   0  0  1  0  0  0  0  0  0  0  0  0
    1.1889   -2.2741    1.7184 C   0  0  0  0  0  0  0  0  0  0  0  0
    0.3562   -1.1776    1.0372 C   0  0  0  0  0  0  0  0  0  0  0  0
   -0.1333   -1.6138   -0.3506 C   0  0  0  0  0  0  0  0  0  0  0  0
    1.0290   -2.0832   -1.2375 C   0  0  0  0  0  0  0  0  0  0  0  0
    1.8459   -3.1881   -0.5547 C   0  0  0  0  0  0  0  0  0  0  0  0
    7.3792   -1.8446    1.5863 H   0  0  0  0  0  0  0  0  0  0  0  0
    7.7519   -0.2929    0.7580 H   0  0  0  0  0  0  0  0  0  0  0  0
    7.3021   -1.7484   -0.1829 H   0  0  0  0  0  0  0  0  0  0  0  0
    5.5038    2.3093    3.4056 H   0  0  0  0  0  0  0  0  0  0  0  0
    4.7421    0.9541    4.2243 H   0  0  0  0  0  0  0  0  0  0  0  0
    4.8646    4.2726    1.9812 H   0  0  0  0  0  0  0  0  0  0  0  0
    3.8337    6.3475    1.1086 H   0  0  0  0  0  0  0  0  0  0  0  0
    1.4907    6.9622    1.5995 H   0  0  0  0  0  0  0  0  0  0  0  0
   -0.7680    6.2809    2.8224 H   0  0  0  0  0  0  0  0  0  0  0  0
   -1.9732    4.6521    4.2267 H   0  0  0  0  0  0  0  0  0  0  0  0
   -0.8560    2.5686    5.0568 H   0  0  0  0  0  0  0  0  0  0  0  0
    3.1368   -0.7700    0.6526 H   0  0  0  0  0  0  0  0  0  0  0  0
    2.8355   -3.6353    1.3124 H   0  0  0  0  0  0  0  0  0  0  0  0
    1.5726   -1.9134    2.6851 H   0  0  0  0  0  0  0  0  0  0  0  0
    0.5397   -3.1422    1.9302 H   0  0  0  0  0  0  0  0  0  0  0  0
    0.9571   -0.2542    0.9508 H   0  0  0  0  0  0  0  0  0  0  0  0
   -0.4955   -0.9078    1.6829 H   0  0  0  0  0  0  0  0  0  0  0  0
   -0.6821   -0.7918   -0.8407 H   0  0  0  0  0  0  0  0  0  0  0  0
   -0.8556   -2.4438   -0.2359 H   0  0  0  0  0  0  0  0  0  0  0  0
    1.6886   -1.2244   -1.4613 H   0  0  0  0  0  0  0  0  0  0  0  0
    0.6524   -2.4387   -2.2114 H   0  0  0  0  0  0  0  0  0  0  0  0
    2.7026   -3.4918   -1.1779 H   0  0  0  0  0  0  0  0  0  0  0  0
    1.2133   -4.0854   -0.4296 H   0  0  0  0  0  0  0  0  0  0  0  0
  1  2  1  0
  1 31  1  0
  1 32  1  0
  1 33  1  0
  2  3  1  6
  2  4  1  0
  2 22  1  0
  4  5  1  0
  5  6  2  0
  5  7  1  0
  7  8  1  0
  7 34  1  0
  7 35  1  0
  8  9  1  0
 19  8  1  6
  9 10  2  0
  9 18  1  0
 10 11  1  0
 10 36  1  0
 11 12  2  0
 11 37  1  0
 12 13  1  0
 12 38  1  0
 13 14  1  0
 13 18  2  0
 14 15  2  0
 14 39  1  0
 15 16  1  0
 15 40  1  0
 16 17  2  0
 16 41  1  0
 17 18  1  0
 17 19  1  0
 19 20  2  0
 19 21  2  0
 22 23  2  0
 22 24  1  0
 24 25  1  0
 24 42  1  0
 25 26  1  0
 25 30  1  0
 25 43  1  1
 26 27  1  0
 26 44  1  0
 26 45  1  0
 27 28  1  0
 27 46  1  0
 27 47  1  0
 28 29  1  0
 28 48  1  0
 28 49  1  0
 29 30  1  0
 29 50  1  0
 29 51  1  0
 30 52  1  0
 30 53  1  0
M  END

