
     RDKit          3D

 41 43  0  0  0  0  0  0  0  0999 V2000
    1.2228    0.3949    0.0401 C   0  0  0  0  0  0  0  0  0  0  0  0
    2.7269    0.3231    0.0239 C   0  0  0  0  0  0  0  0  0  0  0  0
    3.3121    0.3960    1.1721 N   0  0  0  0  0  0  0  0  0  0  0  0
    4.6800    0.2551    1.2440 N   0  0  0  0  0  0  0  0  0  0  0  0
    5.1021    0.4380    2.4458 C   0  0  0  0  0  0  0  0  0  0  0  0
    4.0611    0.8714    3.8244 S   0  0  0  0  0  0  0  0  0  0  0  0
    5.5124    0.9123    4.9393 C   0  0  0  0  0  0  0  0  0  0  0  0
    6.7543    0.5684    4.1267 C   0  0  0  0  0  0  0  0  0  0  0  0
    7.8762    0.5133    4.5777 O   0  0  0  0  0  0  0  0  0  0  0  0
    6.4340    0.3273    2.7990 N   0  0  0  0  0  0  0  0  0  0  0  0
    7.4797   -0.0807    1.8394 C   0  0  0  0  0  0  0  0  0  0  0  0
    7.7044   -1.5752    1.7770 C   0  0  0  0  0  0  0  0  0  0  0  0
    6.9966   -2.3808    0.8709 C   0  0  0  0  0  0  0  0  0  0  0  0
    7.1969   -3.7584    0.8196 C   0  0  0  0  0  0  0  0  0  0  0  0
    8.1190   -4.3866    1.6818 C   0  0  0  0  0  0  0  0  0  0  0  0
    8.3579   -5.7493    1.6004 N   0  0  0  0  0  0  0  0  0  0  0  0
    8.8277   -3.5784    2.5945 C   0  0  0  0  0  0  0  0  0  0  0  0
    8.6207   -2.2016    2.6375 C   0  0  0  0  0  0  0  0  0  0  0  0
    3.3704    0.1540   -1.3187 C   0  0  0  0  0  0  0  0  0  0  0  0
    4.6502    0.6484   -1.6370 C   0  0  0  0  0  0  0  0  0  0  0  0
    5.1370    0.4748   -2.9326 C   0  0  0  0  0  0  0  0  0  0  0  0
    4.3477   -0.1904   -3.8723 C   0  0  0  0  0  0  0  0  0  0  0  0
    3.0859   -0.6382   -3.4677 C   0  0  0  0  0  0  0  0  0  0  0  0
    2.6069   -0.4630   -2.2383 N   0  0  0  0  0  0  0  0  0  0  0  0
    0.8742    0.5399    1.0704 H   0  0  0  0  0  0  0  0  0  0  0  0
    0.7949   -0.5281   -0.3792 H   0  0  0  0  0  0  0  0  0  0  0  0
    0.8602    1.2195   -0.5959 H   0  0  0  0  0  0  0  0  0  0  0  0
    5.4090    0.1816    5.7559 H   0  0  0  0  0  0  0  0  0  0  0  0
    5.6411    1.9082    5.3898 H   0  0  0  0  0  0  0  0  0  0  0  0
    8.3953    0.4309    2.1653 H   0  0  0  0  0  0  0  0  0  0  0  0
    7.1771    0.3118    0.8612 H   0  0  0  0  0  0  0  0  0  0  0  0
    6.2677   -1.9191    0.2003 H   0  0  0  0  0  0  0  0  0  0  0  0
    6.6359   -4.3623    0.1004 H   0  0  0  0  0  0  0  0  0  0  0  0
    7.6365   -6.3141    1.1682 H   0  0  0  0  0  0  0  0  0  0  0  0
    8.7802   -6.1877    2.4103 H   0  0  0  0  0  0  0  0  0  0  0  0
    9.5515   -4.0405    3.2723 H   0  0  0  0  0  0  0  0  0  0  0  0
    9.1735   -1.5971    3.3613 H   0  0  0  0  0  0  0  0  0  0  0  0
    5.2386    1.1571   -0.8774 H   0  0  0  0  0  0  0  0  0  0  0  0
    6.1244    0.8573   -3.2043 H   0  0  0  0  0  0  0  0  0  0  0  0
    4.6925   -0.3521   -4.8963 H   0  0  0  0  0  0  0  0  0  0  0  0
    2.4302   -1.1568   -4.1778 H   0  0  0  0  0  0  0  0  0  0  0  0
  1  2  1  0
  1 25  1  0
  1 26  1  0
  1 27  1  0
  2  3  2  0
  2 19  1  0
  3  4  1  0
  4  5  2  0
  5  6  1  0
  5 10  1  0
  6  7  1  0
  7  8  1  0
  7 28  1  0
  7 29  1  0
  8  9  2  0
  8 10  1  0
 10 11  1  0
 11 12  1  0
 11 30  1  0
 11 31  1  0
 12 13  2  0
 12 18  1  0
 13 14  1  0
 13 32  1  0
 14 15  2  0
 14 33  1  0
 15 16  1  0
 15 17  1  0
 16 34  1  0
 16 35  1  0
 17 18  2  0
 17 36  1  0
 18 37  1  0
 19 20  2  0
 19 24  1  0
 20 21  1  0
 20 38  1  0
 21 22  2  0
 21 39  1  0
 22 23  1  0
 22 40  1  0
 23 24  2  0
 23 41  1  0
M  END

