
     RDKit          3D

 38 40  0  0  0  0  0  0  0  0999 V2000
    1.0480   -0.3472   -0.4617 C   0  0  0  0  0  0  0  0  0  0  0  0
    2.5609   -0.1298   -0.2666 C   0  0  1  0  0  0  0  0  0  0  0  0
    3.3479   -0.6927   -1.4660 C   0  0  0  0  0  0  0  0  0  0  0  0
    2.8653    1.3097   -0.0674 N   0  0  0  0  0  0  0  0  0  0  0  0
    2.3205    2.5631   -1.0636 S   0  0  1  0  0  0  0  0  0  0  0  0
    3.3839    3.5669   -0.9563 O   0  0  0  0  0  0  0  0  0  0  0  0
    1.8772    2.0653   -2.3718 O   0  0  0  0  0  0  0  0  0  0  0  0
    0.8760    3.2071   -0.2185 C   0  0  0  0  0  0  0  0  0  0  0  0
   -0.3665    3.1355   -0.8453 C   0  0  0  0  0  0  0  0  0  0  0  0
   -1.5085    3.6818   -0.2270 C   0  0  0  0  0  0  0  0  0  0  0  0
   -1.3276    4.2866    1.0039 C   0  0  0  0  0  0  0  0  0  0  0  0
   -0.0685    4.3615    1.6182 C   0  0  0  0  0  0  0  0  0  0  0  0
    1.0639    3.8375    1.0312 C   0  0  0  0  0  0  0  0  0  0  0  0
   -0.1913    4.9993    2.8184 O   0  0  0  0  0  0  0  0  0  0  0  0
   -1.5437    5.4376    2.9096 C   0  0  0  0  0  0  0  0  0  0  0  0
   -2.2549    4.8748    1.8068 O   0  0  0  0  0  0  0  0  0  0  0  0
    2.9676   -0.8662    1.0273 C   0  0  0  0  0  0  0  0  0  0  0  0
    3.2049   -0.2054    2.2429 C   0  0  0  0  0  0  0  0  0  0  0  0
    3.5351   -0.9626    3.3694 C   0  0  0  0  0  0  0  0  0  0  0  0
    3.6147   -2.3505    3.2554 C   0  0  0  0  0  0  0  0  0  0  0  0
    3.3501   -2.9176    2.0049 C   0  0  0  0  0  0  0  0  0  0  0  0
    3.0368   -2.1995    0.9273 N   0  0  0  0  0  0  0  0  0  0  0  0
    0.7069    0.0852   -1.4118 H   0  0  0  0  0  0  0  0  0  0  0  0
    0.4754    0.0985    0.3657 H   0  0  0  0  0  0  0  0  0  0  0  0
    0.8523   -1.4283   -0.4759 H   0  0  0  0  0  0  0  0  0  0  0  0
    3.0480   -0.1676   -2.3832 H   0  0  0  0  0  0  0  0  0  0  0  0
    3.1629   -1.7694   -1.5726 H   0  0  0  0  0  0  0  0  0  0  0  0
    4.4313   -0.5513   -1.3176 H   0  0  0  0  0  0  0  0  0  0  0  0
    3.8606    1.4932    0.0673 H   0  0  0  0  0  0  0  0  0  0  0  0
   -0.4401    2.6594   -1.8235 H   0  0  0  0  0  0  0  0  0  0  0  0
   -2.4916    3.6369   -0.6973 H   0  0  0  0  0  0  0  0  0  0  0  0
    2.0464    3.9122    1.4966 H   0  0  0  0  0  0  0  0  0  0  0  0
   -1.5852    6.5419    2.8524 H   0  0  0  0  0  0  0  0  0  0  0  0
   -1.9878    5.0852    3.8555 H   0  0  0  0  0  0  0  0  0  0  0  0
    3.1211    0.8790    2.3020 H   0  0  0  0  0  0  0  0  0  0  0  0
    3.7255   -0.4694    4.3265 H   0  0  0  0  0  0  0  0  0  0  0  0
    3.8713   -2.9815    4.1092 H   0  0  0  0  0  0  0  0  0  0  0  0
    3.3937   -4.0053    1.8706 H   0  0  0  0  0  0  0  0  0  0  0  0
  1  2  1  0
  1 23  1  0
  1 24  1  0
  1 25  1  0
  2  3  1  0
  2  4  1  1
  2 17  1  0
  3 26  1  0
  3 27  1  0
  3 28  1  0
  5  4  1  1
  4 29  1  0
  5  6  2  0
  5  7  2  0
  5  8  1  0
  8  9  2  0
  8 13  1  0
  9 10  1  0
  9 30  1  0
 10 11  2  0
 10 31  1  0
 11 12  1  0
 11 16  1  0
 12 13  2  0
 12 14  1  0
 13 32  1  0
 14 15  1  0
 15 16  1  0
 15 33  1  0
 15 34  1  0
 17 18  2  0
 17 22  1  0
 18 19  1  0
 18 35  1  0
 19 20  2  0
 19 36  1  0
 20 21  1  0
 20 37  1  0
 21 22  2  0
 21 38  1  0
M  END

