
     RDKit          3D

 43 43  0  0  0  0  0  0  0  0999 V2000
    0.9194   -2.5907    0.6819 C   0  0  0  0  0  0  0  0  0  0  0  0
    2.4325   -2.4121    0.4812 C   0  0  1  0  0  0  0  0  0  0  0  0
    2.9780   -1.4372    1.5366 C   0  0  0  0  0  0  0  0  0  0  0  0
    3.1826   -3.7748    0.4709 C   0  0  1  0  0  0  0  0  0  0  0  0
    2.7120   -4.6964   -0.6648 C   0  0  0  0  0  0  0  0  0  0  0  0
    4.7181   -3.6372    0.4499 C   0  0  0  0  0  0  0  0  0  0  0  0
    5.2199   -2.9663   -0.7410 N   0  0  0  0  0  0  0  0  0  0  0  0
    6.6717   -2.8500   -0.8268 C   0  0  0  0  0  0  0  0  0  0  0  0
    7.3560   -4.1176   -1.3792 C   0  0  1  0  0  0  0  0  0  0  0  0
    6.9228   -4.4380   -2.8240 C   0  0  0  0  0  0  0  0  0  0  0  0
    7.5446   -3.4918   -3.8619 C   0  0  0  0  0  0  0  0  0  0  0  0
    9.0733   -3.4403   -3.7379 C   0  0  0  0  0  0  0  0  0  0  0  0
    9.5097   -3.0961   -2.3064 C   0  0  0  0  0  0  0  0  0  0  0  0
    8.9058   -4.0476   -1.2561 C   0  0  2  0  0  0  0  0  0  0  0  0
    9.5767   -5.3495   -1.3310 N   0  0  0  0  0  0  0  0  0  0  0  0
    0.4087   -1.6144    0.6946 H   0  0  0  0  0  0  0  0  0  0  0  0
    0.7068   -3.0880    1.6444 H   0  0  0  0  0  0  0  0  0  0  0  0
    0.4563   -3.1914   -0.1143 H   0  0  0  0  0  0  0  0  0  0  0  0
    2.5745   -1.9472   -0.5140 H   0  0  0  0  0  0  0  0  0  0  0  0
    2.9208   -1.8745    2.5485 H   0  0  0  0  0  0  0  0  0  0  0  0
    2.3891   -0.5059    1.5465 H   0  0  0  0  0  0  0  0  0  0  0  0
    4.0271   -1.1572    1.3558 H   0  0  0  0  0  0  0  0  0  0  0  0
    2.9453   -4.2704    1.4326 H   0  0  0  0  0  0  0  0  0  0  0  0
    2.8984   -4.2345   -1.6467 H   0  0  0  0  0  0  0  0  0  0  0  0
    1.6410   -4.9355   -0.5917 H   0  0  0  0  0  0  0  0  0  0  0  0
    3.2623   -5.6508   -0.6425 H   0  0  0  0  0  0  0  0  0  0  0  0
    5.1456   -4.6537    0.4800 H   0  0  0  0  0  0  0  0  0  0  0  0
    5.0643   -3.1444    1.3858 H   0  0  0  0  0  0  0  0  0  0  0  0
    4.7975   -2.0451   -0.8227 H   0  0  0  0  0  0  0  0  0  0  0  0
    7.1256   -2.6114    0.1622 H   0  0  0  0  0  0  0  0  0  0  0  0
    6.8996   -1.9922   -1.4793 H   0  0  0  0  0  0  0  0  0  0  0  0
    7.0328   -4.9568   -0.7360 H   0  0  0  0  0  0  0  0  0  0  0  0
    5.8237   -4.4079   -2.8805 H   0  0  0  0  0  0  0  0  0  0  0  0
    7.2212   -5.4747   -3.0649 H   0  0  0  0  0  0  0  0  0  0  0  0
    7.1355   -2.4733   -3.7332 H   0  0  0  0  0  0  0  0  0  0  0  0
    7.2514   -3.8062   -4.8780 H   0  0  0  0  0  0  0  0  0  0  0  0
    9.4945   -2.7070   -4.4464 H   0  0  0  0  0  0  0  0  0  0  0  0
    9.4996   -4.4173   -4.0322 H   0  0  0  0  0  0  0  0  0  0  0  0
    9.2014   -2.0611   -2.0764 H   0  0  0  0  0  0  0  0  0  0  0  0
   10.6071   -3.1287   -2.2159 H   0  0  0  0  0  0  0  0  0  0  0  0
    9.1456   -3.6399   -0.2573 H   0  0  0  0  0  0  0  0  0  0  0  0
    9.3755   -5.8101   -2.2187 H   0  0  0  0  0  0  0  0  0  0  0  0
    9.2146   -5.9719   -0.6077 H   0  0  0  0  0  0  0  0  0  0  0  0
  1  2  1  0
  1 16  1  0
  1 17  1  0
  1 18  1  0
  2  3  1  0
  2  4  1  0
  2 19  1  6
  3 20  1  0
  3 21  1  0
  3 22  1  0
  4  5  1  0
  4  6  1  0
  4 23  1  1
  5 24  1  0
  5 25  1  0
  5 26  1  0
  6  7  1  0
  6 27  1  0
  6 28  1  0
  7  8  1  0
  7 29  1  0
  8  9  1  0
  8 30  1  0
  8 31  1  0
  9 10  1  0
  9 14  1  0
  9 32  1  1
 10 11  1  0
 10 33  1  0
 10 34  1  0
 11 12  1  0
 11 35  1  0
 11 36  1  0
 12 13  1  0
 12 37  1  0
 12 38  1  0
 13 14  1  0
 13 39  1  0
 13 40  1  0
 14 15  1  0
 14 41  1  1
 15 42  1  0
 15 43  1  0
M  END

