
     RDKit          3D

 46 48  0  0  0  0  0  0  0  0999 V2000
    0.9720    0.1197    0.2598 C   0  0  0  0  0  0  0  0  0  0  0  0
    2.4774    0.1989   -0.0069 C   0  0  0  0  0  0  0  0  0  0  0  0
    3.1127   -1.0916   -0.5782 C   0  0  1  0  0  0  0  0  0  0  0  0
    2.6145   -1.4513   -2.0042 C   0  0  0  0  0  0  0  0  0  0  0  0
    2.9832   -0.4758   -3.1050 C   0  0  0  0  0  0  0  0  0  0  0  0
    4.2277   -0.5484   -3.7523 C   0  0  0  0  0  0  0  0  0  0  0  0
    4.5557    0.3563   -4.7665 C   0  0  0  0  0  0  0  0  0  0  0  0
    3.6591    1.3506   -5.1536 C   0  0  0  0  0  0  0  0  0  0  0  0
    2.3996    1.4529   -4.5151 C   0  0  0  0  0  0  0  0  0  0  0  0
    2.0873    0.5283   -3.5046 C   0  0  0  0  0  0  0  0  0  0  0  0
    1.5155    2.4438   -4.9240 N   0  0  0  0  0  0  0  0  0  0  0  0
    2.0333    3.5325   -5.7228 C   0  0  0  0  0  0  0  0  0  0  0  0
    2.9845    2.9519   -6.7640 C   0  0  0  0  0  0  0  0  0  0  0  0
    4.0320    2.2146   -6.1525 O   0  0  0  0  0  0  0  0  0  0  0  0
    4.5743   -1.0965   -0.5587 N   0  0  0  0  0  0  0  0  0  0  0  0
    5.2175   -1.0952    0.7447 C   0  0  0  0  0  0  0  0  0  0  0  0
    6.7076   -1.3763    0.6575 C   0  0  0  0  0  0  0  0  0  0  0  0
    7.2605   -2.1548   -0.3730 C   0  0  0  0  0  0  0  0  0  0  0  0
    8.6265   -2.4441   -0.4133 C   0  0  0  0  0  0  0  0  0  0  0  0
    9.4758   -1.9569    0.5867 C   0  0  0  0  0  0  0  0  0  0  0  0
    8.9524   -1.1807    1.6220 C   0  0  0  0  0  0  0  0  0  0  0  0
    7.5854   -0.9091    1.6403 C   0  0  0  0  0  0  0  0  0  0  0  0
    7.0971   -0.1626    2.6517 F   0  0  0  0  0  0  0  0  0  0  0  0
    0.6047    1.0423    0.7374 H   0  0  0  0  0  0  0  0  0  0  0  0
    0.7275   -0.7186    0.9338 H   0  0  0  0  0  0  0  0  0  0  0  0
    0.3878   -0.0222   -0.6631 H   0  0  0  0  0  0  0  0  0  0  0  0
    2.9837    0.4366    0.9435 H   0  0  0  0  0  0  0  0  0  0  0  0
    2.6990    1.0393   -0.6879 H   0  0  0  0  0  0  0  0  0  0  0  0
    2.7946   -1.9269    0.0736 H   0  0  0  0  0  0  0  0  0  0  0  0
    1.5203   -1.5716   -1.9721 H   0  0  0  0  0  0  0  0  0  0  0  0
    3.0301   -2.4424   -2.2461 H   0  0  0  0  0  0  0  0  0  0  0  0
    4.9390   -1.3294   -3.4762 H   0  0  0  0  0  0  0  0  0  0  0  0
    5.5157    0.3015   -5.2843 H   0  0  0  0  0  0  0  0  0  0  0  0
    1.1065    0.5971   -3.0245 H   0  0  0  0  0  0  0  0  0  0  0  0
    0.7387    2.6402   -4.3069 H   0  0  0  0  0  0  0  0  0  0  0  0
    2.5853    4.2856   -5.1213 H   0  0  0  0  0  0  0  0  0  0  0  0
    1.2059    4.0528   -6.2313 H   0  0  0  0  0  0  0  0  0  0  0  0
    3.4641    3.7528   -7.3454 H   0  0  0  0  0  0  0  0  0  0  0  0
    2.4226    2.2989   -7.4569 H   0  0  0  0  0  0  0  0  0  0  0  0
    4.9418   -0.3435   -1.1403 H   0  0  0  0  0  0  0  0  0  0  0  0
    4.7468   -1.8929    1.3518 H   0  0  0  0  0  0  0  0  0  0  0  0
    5.0756   -0.1639    1.3270 H   0  0  0  0  0  0  0  0  0  0  0  0
    6.5818   -2.5121   -1.1492 H   0  0  0  0  0  0  0  0  0  0  0  0
    9.0307   -3.0526   -1.2260 H   0  0  0  0  0  0  0  0  0  0  0  0
   10.5457   -2.1779    0.5606 H   0  0  0  0  0  0  0  0  0  0  0  0
    9.5811   -0.7770    2.4183 H   0  0  0  0  0  0  0  0  0  0  0  0
  1  2  1  0
  1 24  1  0
  1 25  1  0
  1 26  1  0
  2  3  1  0
  2 27  1  0
  2 28  1  0
  3  4  1  0
  3 15  1  0
  3 29  1  1
  4  5  1  0
  4 30  1  0
  4 31  1  0
  5  6  2  0
  5 10  1  0
  6  7  1  0
  6 32  1  0
  7  8  2  0
  7 33  1  0
  8  9  1  0
  8 14  1  0
  9 10  2  0
  9 11  1  0
 10 34  1  0
 11 12  1  0
 11 35  1  0
 12 13  1  0
 12 36  1  0
 12 37  1  0
 13 14  1  0
 13 38  1  0
 13 39  1  0
 15 16  1  0
 15 40  1  0
 16 17  1  0
 16 41  1  0
 16 42  1  0
 17 18  2  0
 17 22  1  0
 18 19  1  0
 18 43  1  0
 19 20  2  0
 19 44  1  0
 20 21  1  0
 20 45  1  0
 21 22  2  0
 21 46  1  0
 22 23  1  0
M  END

