
     RDKit          3D

 60 60  0  0  0  0  0  0  0  0999 V2000
    4.5477   -4.2807    4.9125 C   0  0  0  0  0  0  0  0  0  0  0  0
    4.6626   -2.7550    4.8613 C   0  0  0  0  0  0  0  0  0  0  0  0
    4.2542   -2.0639    3.5377 C   0  0  1  0  0  0  0  0  0  0  0  0
    2.7993   -2.3961    3.1557 C   0  0  0  0  0  0  0  0  0  0  0  0
    4.4106   -0.5394    3.7043 C   0  0  0  0  0  0  0  0  0  0  0  0
    5.1772   -2.5417    2.4887 N   0  0  0  0  0  0  0  0  0  0  0  0
    5.1741   -2.1683    1.1847 C   0  0  0  0  0  0  0  0  0  0  0  0
    4.3697   -1.4117    0.6607 O   0  0  0  0  0  0  0  0  0  0  0  0
    6.3500   -2.7343    0.3653 C   0  0  0  0  0  0  0  0  0  0  0  0
    6.9693   -3.9301    0.9233 N   0  0  0  0  0  0  0  0  0  0  0  0
    6.1717   -5.1190    0.6251 C   0  0  0  0  0  0  0  0  0  0  0  0
    6.6241   -6.4046    1.3193 C   0  0  0  0  0  0  0  0  0  0  0  0
    7.9884   -6.9347    0.8444 C   0  0  0  0  0  0  0  0  0  0  0  0
    9.1804   -6.3384    1.4473 N   0  0  0  0  0  0  0  0  0  0  0  0
    9.7563   -7.0345    2.5855 C   0  0  0  0  0  0  0  0  0  0  0  0
   11.2986   -7.0498    2.6286 C   0  0  0  0  0  0  0  0  0  0  0  0
   11.8845   -7.2931    3.6735 O   0  0  0  0  0  0  0  0  0  0  0  0
   11.8843   -6.8252    1.4264 N   0  0  0  0  0  0  0  0  0  0  0  0
   13.3311   -6.8583    1.1371 C   0  0  1  0  0  0  0  0  0  0  0  0
   13.8945   -8.2596    1.4418 C   0  0  0  0  0  0  0  0  0  0  0  0
   13.4887   -6.5412   -0.3570 C   0  0  0  0  0  0  0  0  0  0  0  0
   14.0603   -5.7960    1.9813 C   0  0  0  0  0  0  0  0  0  0  0  0
    9.1781   -4.8884    1.6495 C   0  0  0  0  0  0  0  0  0  0  0  0
    8.3992   -4.0547    0.6294 C   0  0  0  0  0  0  0  0  0  0  0  0
    4.9099   -4.6606    5.8807 H   0  0  0  0  0  0  0  0  0  0  0  0
    5.1452   -4.7709    4.1264 H   0  0  0  0  0  0  0  0  0  0  0  0
    3.5076   -4.6207    4.7945 H   0  0  0  0  0  0  0  0  0  0  0  0
    5.7022   -2.4582    5.0908 H   0  0  0  0  0  0  0  0  0  0  0  0
    4.0443   -2.3177    5.6629 H   0  0  0  0  0  0  0  0  0  0  0  0
    2.1134   -2.0830    3.9592 H   0  0  0  0  0  0  0  0  0  0  0  0
    2.6649   -3.4753    2.9882 H   0  0  0  0  0  0  0  0  0  0  0  0
    2.5248   -1.8720    2.2307 H   0  0  0  0  0  0  0  0  0  0  0  0
    3.7233   -0.1628    4.4784 H   0  0  0  0  0  0  0  0  0  0  0  0
    4.1863   -0.0286    2.7578 H   0  0  0  0  0  0  0  0  0  0  0  0
    5.4395   -0.2847    4.0055 H   0  0  0  0  0  0  0  0  0  0  0  0
    5.9497   -3.1534    2.7421 H   0  0  0  0  0  0  0  0  0  0  0  0
    7.0973   -1.9253    0.3192 H   0  0  0  0  0  0  0  0  0  0  0  0
    5.9730   -2.8681   -0.6688 H   0  0  0  0  0  0  0  0  0  0  0  0
    6.1499   -5.3059   -0.4744 H   0  0  0  0  0  0  0  0  0  0  0  0
    5.1327   -4.9014    0.9192 H   0  0  0  0  0  0  0  0  0  0  0  0
    5.8641   -7.1715    1.0922 H   0  0  0  0  0  0  0  0  0  0  0  0
    6.6187   -6.2763    2.4155 H   0  0  0  0  0  0  0  0  0  0  0  0
    8.0323   -6.8187   -0.2551 H   0  0  0  0  0  0  0  0  0  0  0  0
    8.0451   -8.0180    1.0272 H   0  0  0  0  0  0  0  0  0  0  0  0
    9.4497   -8.0928    2.5656 H   0  0  0  0  0  0  0  0  0  0  0  0
    9.4311   -6.6326    3.5666 H   0  0  0  0  0  0  0  0  0  0  0  0
   11.2244   -6.6552    0.6700 H   0  0  0  0  0  0  0  0  0  0  0  0
   13.3894   -9.0225    0.8277 H   0  0  0  0  0  0  0  0  0  0  0  0
   13.7438   -8.5083    2.5013 H   0  0  0  0  0  0  0  0  0  0  0  0
   14.9728   -8.2978    1.2196 H   0  0  0  0  0  0  0  0  0  0  0  0
   12.9685   -7.2881   -0.9795 H   0  0  0  0  0  0  0  0  0  0  0  0
   14.5519   -6.5490   -0.6404 H   0  0  0  0  0  0  0  0  0  0  0  0
   13.0822   -5.5449   -0.5972 H   0  0  0  0  0  0  0  0  0  0  0  0
   13.9097   -5.9904    3.0518 H   0  0  0  0  0  0  0  0  0  0  0  0
   13.6787   -4.7881    1.7513 H   0  0  0  0  0  0  0  0  0  0  0  0
   15.1408   -5.8114    1.7668 H   0  0  0  0  0  0  0  0  0  0  0  0
   10.2282   -4.5480    1.6374 H   0  0  0  0  0  0  0  0  0  0  0  0
    8.7822   -4.6242    2.6536 H   0  0  0  0  0  0  0  0  0  0  0  0
    8.5910   -4.4264   -0.4014 H   0  0  0  0  0  0  0  0  0  0  0  0
    8.8222   -3.0401    0.6697 H   0  0  0  0  0  0  0  0  0  0  0  0
  1  2  1  0
  1 25  1  0
  1 26  1  0
  1 27  1  0
  2  3  1  0
  2 28  1  0
  2 29  1  0
  3  4  1  0
  3  5  1  0
  3  6  1  6
  4 30  1  0
  4 31  1  0
  4 32  1  0
  5 33  1  0
  5 34  1  0
  5 35  1  0
  6  7  1  0
  6 36  1  0
  7  8  2  0
  7  9  1  0
  9 10  1  0
  9 37  1  0
  9 38  1  0
 10 11  1  0
 10 24  1  0
 11 12  1  0
 11 39  1  0
 11 40  1  0
 12 13  1  0
 12 41  1  0
 12 42  1  0
 13 14  1  0
 13 43  1  0
 13 44  1  0
 14 15  1  0
 14 23  1  0
 15 16  1  0
 15 45  1  0
 15 46  1  0
 16 17  2  0
 16 18  1  0
 19 18  1  1
 18 47  1  0
 19 20  1  0
 19 21  1  0
 19 22  1  0
 20 48  1  0
 20 49  1  0
 20 50  1  0
 21 51  1  0
 21 52  1  0
 21 53  1  0
 22 54  1  0
 22 55  1  0
 22 56  1  0
 23 24  1  0
 23 57  1  0
 23 58  1  0
 24 59  1  0
 24 60  1  0
M  END

