
     RDKit          3D

 36 37  0  0  0  0  0  0  0  0999 V2000
    2.8243    1.5099    0.2201 C   0  0  0  0  0  0  0  0  0  0  0  0
    2.2194   -0.1869    0.0498 S   0  0  1  0  0  0  0  0  0  0  0  0
    1.6127   -0.5902    1.3303 O   0  0  0  0  0  0  0  0  0  0  0  0
    1.4315   -0.2276   -1.1924 O   0  0  0  0  0  0  0  0  0  0  0  0
    3.8126   -1.1656   -0.0949 C   0  0  1  0  0  0  0  0  0  0  0  0
    3.5448   -2.6584    0.1529 C   0  0  0  0  0  0  0  0  0  0  0  0
    2.8365   -3.5571   -1.2708 S   0  0  0  0  0  0  0  0  0  0  0  0
    3.9858   -2.9141   -2.5474 C   0  0  0  0  0  0  0  0  0  0  0  0
    4.0371   -1.3846   -2.5335 C   0  0  0  0  0  0  0  0  0  0  0  0
    4.5408   -0.7954   -1.2825 N   0  0  0  0  0  0  0  0  0  0  0  0
    6.0055   -0.8249   -1.1027 C   0  0  0  0  0  0  0  0  0  0  0  0
    6.7636   -0.1186   -2.2007 C   0  0  0  0  0  0  0  0  0  0  0  0
    6.7516    1.2793   -2.3387 C   0  0  0  0  0  0  0  0  0  0  0  0
    7.4488    1.9341   -3.3481 C   0  0  0  0  0  0  0  0  0  0  0  0
    8.2067    1.2004   -4.2888 C   0  0  0  0  0  0  0  0  0  0  0  0
    8.9413    1.8423   -5.2654 N   0  0  0  0  0  0  0  0  0  0  0  0
    8.2281   -0.2025   -4.1730 C   0  0  0  0  0  0  0  0  0  0  0  0
    7.5151   -0.8179   -3.1506 C   0  0  0  0  0  0  0  0  0  0  0  0
    7.5510   -2.1649   -3.0886 F   0  0  0  0  0  0  0  0  0  0  0  0
    1.9176    2.1295    0.2309 H   0  0  0  0  0  0  0  0  0  0  0  0
    3.4473    1.7427   -0.6520 H   0  0  0  0  0  0  0  0  0  0  0  0
    3.3765    1.6135    1.1629 H   0  0  0  0  0  0  0  0  0  0  0  0
    4.3589   -0.7843    0.7835 H   0  0  0  0  0  0  0  0  0  0  0  0
    2.8392   -2.7721    0.9885 H   0  0  0  0  0  0  0  0  0  0  0  0
    4.4974   -3.1296    0.4506 H   0  0  0  0  0  0  0  0  0  0  0  0
    3.5847   -3.2679   -3.5094 H   0  0  0  0  0  0  0  0  0  0  0  0
    4.9864   -3.3605   -2.4219 H   0  0  0  0  0  0  0  0  0  0  0  0
    3.0268   -0.9910   -2.7106 H   0  0  0  0  0  0  0  0  0  0  0  0
    4.6826   -1.0245   -3.3493 H   0  0  0  0  0  0  0  0  0  0  0  0
    6.3991   -1.8544   -1.0052 H   0  0  0  0  0  0  0  0  0  0  0  0
    6.2166   -0.3198   -0.1453 H   0  0  0  0  0  0  0  0  0  0  0  0
    6.1723    1.8702   -1.6237 H   0  0  0  0  0  0  0  0  0  0  0  0
    7.4189    3.0247   -3.4144 H   0  0  0  0  0  0  0  0  0  0  0  0
    8.6888    2.7972   -5.4877 H   0  0  0  0  0  0  0  0  0  0  0  0
    9.2429    1.2964   -6.0628 H   0  0  0  0  0  0  0  0  0  0  0  0
    8.7933   -0.8247   -4.8700 H   0  0  0  0  0  0  0  0  0  0  0  0
  2  1  1  1
  1 20  1  0
  1 21  1  0
  1 22  1  0
  2  3  2  0
  2  4  2  0
  2  5  1  0
  5  6  1  0
  5 10  1  0
  5 23  1  1
  6  7  1  0
  6 24  1  0
  6 25  1  0
  7  8  1  0
  8  9  1  0
  8 26  1  0
  8 27  1  0
  9 10  1  0
  9 28  1  0
  9 29  1  0
 10 11  1  0
 11 12  1  0
 11 30  1  0
 11 31  1  0
 12 13  2  0
 12 18  1  0
 13 14  1  0
 13 32  1  0
 14 15  2  0
 14 33  1  0
 15 16  1  0
 15 17  1  0
 16 34  1  0
 16 35  1  0
 17 18  2  0
 17 36  1  0
 18 19  1  0
M  END

