
     RDKit          3D

 34 35  0  0  0  0  0  0  0  0999 V2000
    0.8884    0.3865    0.2782 C   0  0  0  0  0  0  0  0  0  0  0  0
    2.3720    0.2253    0.0873 C   0  0  0  0  0  0  0  0  0  0  0  0
    3.0012   -1.0207   -0.0024 C   0  0  0  0  0  0  0  0  0  0  0  0
    4.3969   -1.1341   -0.1793 C   0  0  0  0  0  0  0  0  0  0  0  0
    5.1563   -2.8843   -0.2905 Br  0  0  0  0  0  0  0  0  0  0  0  0
    5.2306   -0.0259   -0.2746 C   0  0  0  0  0  0  0  0  0  0  0  0
    4.6238    1.2414   -0.1878 C   0  0  0  0  0  0  0  0  0  0  0  0
    5.0909    2.6028   -0.2356 C   0  0  0  0  0  0  0  0  0  0  0  0
    3.9859    3.3897   -0.0901 C   0  0  0  0  0  0  0  0  0  0  0  0
    3.8781    4.8719   -0.0640 C   0  0  0  0  0  0  0  0  0  0  0  0
    4.8726    5.5757   -0.1791 O   0  0  0  0  0  0  0  0  0  0  0  0
    2.6166    5.3591    0.0911 N   0  0  0  0  0  0  0  0  0  0  0  0
    2.3457    6.7856    0.1748 C   0  0  0  0  0  0  0  0  0  0  0  0
    2.4180    7.5080   -1.1804 C   0  0  0  0  0  0  0  0  0  0  0  0
    1.5353    6.9657   -2.1977 N   0  0  0  0  0  0  0  0  0  0  0  0
    0.1710    7.1322   -2.1044 C   0  0  0  0  0  0  0  0  0  0  0  0
   -0.5571    6.4669   -3.0807 N   0  0  0  0  0  0  0  0  0  0  0  0
   -0.3576    7.7909   -1.2228 O   0  0  0  0  0  0  0  0  0  0  0  0
    2.8430    2.6360    0.0467 O   0  0  0  0  0  0  0  0  0  0  0  0
    3.2276    1.3285   -0.0118 C   0  0  0  0  0  0  0  0  0  0  0  0
    0.3857   -0.5895    0.3272 H   0  0  0  0  0  0  0  0  0  0  0  0
    0.4407    0.9629   -0.5482 H   0  0  0  0  0  0  0  0  0  0  0  0
    0.6645    0.9354    1.2078 H   0  0  0  0  0  0  0  0  0  0  0  0
    2.3992   -1.9287    0.0665 H   0  0  0  0  0  0  0  0  0  0  0  0
    6.3070   -0.1367   -0.4102 H   0  0  0  0  0  0  0  0  0  0  0  0
    6.1061    2.9713   -0.3587 H   0  0  0  0  0  0  0  0  0  0  0  0
    1.8535    4.6998    0.1839 H   0  0  0  0  0  0  0  0  0  0  0  0
    3.0769    7.2506    0.8560 H   0  0  0  0  0  0  0  0  0  0  0  0
    1.3404    6.9185    0.5969 H   0  0  0  0  0  0  0  0  0  0  0  0
    3.4482    7.4635   -1.5615 H   0  0  0  0  0  0  0  0  0  0  0  0
    2.1599    8.5657   -1.0168 H   0  0  0  0  0  0  0  0  0  0  0  0
    1.8901    6.2077   -2.7678 H   0  0  0  0  0  0  0  0  0  0  0  0
   -0.1306    6.3200   -3.9893 H   0  0  0  0  0  0  0  0  0  0  0  0
   -1.5321    6.7437   -3.1124 H   0  0  0  0  0  0  0  0  0  0  0  0
  1  2  1  0
  1 21  1  0
  1 22  1  0
  1 23  1  0
  2  3  2  0
  2 20  1  0
  3  4  1  0
  3 24  1  0
  4  5  1  0
  4  6  2  0
  6  7  1  0
  6 25  1  0
  7  8  1  0
  7 20  2  0
  8  9  2  0
  8 26  1  0
  9 10  1  0
  9 19  1  0
 10 11  2  0
 10 12  1  0
 12 13  1  0
 12 27  1  0
 13 14  1  0
 13 28  1  0
 13 29  1  0
 14 15  1  0
 14 30  1  0
 14 31  1  0
 15 16  1  0
 15 32  1  0
 16 17  1  0
 16 18  2  0
 17 33  1  0
 17 34  1  0
 19 20  1  0
M  END

