
     RDKit          3D

 64 67  0  0  0  0  0  0  0  0999 V2000
    9.8263   -8.2704   -5.1350 C   0  0  0  0  0  0  0  0  0  0  0  0
   10.0325   -7.5699   -3.8796 N   0  0  0  0  0  0  0  0  0  0  0  0
   11.3701   -7.4566   -3.3354 C   0  0  0  0  0  0  0  0  0  0  0  0
    8.9942   -6.8832   -3.2962 C   0  0  0  0  0  0  0  0  0  0  0  0
    9.1608   -6.1493   -2.0945 C   0  0  0  0  0  0  0  0  0  0  0  0
    8.0613   -5.5204   -1.5248 C   0  0  0  0  0  0  0  0  0  0  0  0
    6.8009   -5.6026   -2.1377 C   0  0  0  0  0  0  0  0  0  0  0  0
    5.5257   -4.9719   -1.5932 C   0  0  2  0  0  0  0  0  0  0  0  0
    5.0228   -4.4887   -2.4504 H   0  0  0  0  0  0  0  0  0  0  0  0
    5.7358   -3.8168   -0.5691 C   0  0  0  0  0  0  0  0  0  0  0  0
    6.2172   -4.1812    0.8387 C   0  0  0  0  0  0  0  0  0  0  0  0
    7.3260   -3.9433    1.2417 O   0  0  0  0  0  0  0  0  0  0  0  0
    5.3184   -4.7715    1.6485 O   0  0  0  0  0  0  0  0  0  0  0  0
    4.5489   -6.0227   -1.0868 C   0  0  0  0  0  0  0  0  0  0  0  0
    4.7749   -7.2908   -0.9946 N   0  0  0  0  0  0  0  0  0  0  0  0
    3.6939   -8.0072   -0.5172 C   0  0  0  0  0  0  0  0  0  0  0  0
    3.7879   -9.5073   -0.4234 C   0  0  0  0  0  0  0  0  0  0  0  0
    3.2949  -10.2481   -1.6856 C   0  0  0  0  0  0  0  0  0  0  0  0
    3.9692   -9.8079   -2.9872 C   0  0  0  0  0  0  0  0  0  0  0  0
    3.5166  -10.6181   -4.2026 C   0  0  0  0  0  0  0  0  0  0  0  0
    4.0118  -10.0894   -5.5388 C   0  0  0  0  0  0  0  0  0  0  0  0
    3.4055  -10.5007   -6.7351 C   0  0  0  0  0  0  0  0  0  0  0  0
    3.9003   -9.9844   -7.9371 C   0  0  0  0  0  0  0  0  0  0  0  0
    4.9686   -9.0930   -7.9441 C   0  0  0  0  0  0  0  0  0  0  0  0
    5.5117   -8.7367   -6.6769 C   0  0  0  0  0  0  0  0  0  0  0  0
    5.0323   -9.2289   -5.5227 N   0  0  0  0  0  0  0  0  0  0  0  0
    6.5418   -7.8392   -6.5840 N   0  0  0  0  0  0  0  0  0  0  0  0
    7.1933   -7.2721   -7.7450 C   0  0  0  0  0  0  0  0  0  0  0  0
    6.2121   -7.1390   -8.9115 C   0  0  0  0  0  0  0  0  0  0  0  0
    5.5527   -8.4923   -9.2048 C   0  0  0  0  0  0  0  0  0  0  0  0
    2.5980   -7.2404   -0.2157 C   0  0  0  0  0  0  0  0  0  0  0  0
    2.9060   -5.5688   -0.5725 S   0  0  0  0  0  0  0  0  0  0  0  0
    6.7518   -6.3179   -3.3403 C   0  0  0  0  0  0  0  0  0  0  0  0
    7.7924   -6.9250   -3.9080 N   0  0  0  0  0  0  0  0  0  0  0  0
   10.6632   -8.9631   -5.2994 H   0  0  0  0  0  0  0  0  0  0  0  0
    9.7688   -7.5848   -6.0018 H   0  0  0  0  0  0  0  0  0  0  0  0
    8.8936   -8.8502   -5.1108 H   0  0  0  0  0  0  0  0  0  0  0  0
   12.0523   -8.0885   -3.9184 H   0  0  0  0  0  0  0  0  0  0  0  0
   11.4168   -7.7961   -2.2855 H   0  0  0  0  0  0  0  0  0  0  0  0
   11.7578   -6.4203   -3.3688 H   0  0  0  0  0  0  0  0  0  0  0  0
   10.1301   -6.0748   -1.6047 H   0  0  0  0  0  0  0  0  0  0  0  0
    8.2025   -4.9637   -0.5974 H   0  0  0  0  0  0  0  0  0  0  0  0
    4.7816   -3.2715   -0.4671 H   0  0  0  0  0  0  0  0  0  0  0  0
    6.4679   -3.1091   -0.9802 H   0  0  0  0  0  0  0  0  0  0  0  0
    4.4693   -4.9163    1.1966 H   0  0  0  0  0  0  0  0  0  0  0  0
    3.2111   -9.8581    0.4475 H   0  0  0  0  0  0  0  0  0  0  0  0
    4.8443   -9.7584   -0.2379 H   0  0  0  0  0  0  0  0  0  0  0  0
    2.2013  -10.1110   -1.7752 H   0  0  0  0  0  0  0  0  0  0  0  0
    3.4517  -11.3305   -1.5270 H   0  0  0  0  0  0  0  0  0  0  0  0
    5.0650   -9.8666   -2.8931 H   0  0  0  0  0  0  0  0  0  0  0  0
    3.7599   -8.7428   -3.1742 H   0  0  0  0  0  0  0  0  0  0  0  0
    2.4133  -10.6688   -4.2356 H   0  0  0  0  0  0  0  0  0  0  0  0
    3.8508  -11.6680   -4.0936 H   0  0  0  0  0  0  0  0  0  0  0  0
    2.5642  -11.1971   -6.7238 H   0  0  0  0  0  0  0  0  0  0  0  0
    3.4416  -10.2759   -8.8879 H   0  0  0  0  0  0  0  0  0  0  0  0
    6.9500   -7.6747   -5.6583 H   0  0  0  0  0  0  0  0  0  0  0  0
    8.0578   -7.8897   -8.0717 H   0  0  0  0  0  0  0  0  0  0  0  0
    7.6033   -6.2860   -7.4711 H   0  0  0  0  0  0  0  0  0  0  0  0
    6.7405   -6.7589   -9.8005 H   0  0  0  0  0  0  0  0  0  0  0  0
    5.4375   -6.3981   -8.6488 H   0  0  0  0  0  0  0  0  0  0  0  0
    6.3095   -9.1759   -9.6352 H   0  0  0  0  0  0  0  0  0  0  0  0
    4.7687   -8.3855   -9.9730 H   0  0  0  0  0  0  0  0  0  0  0  0
    1.6341   -7.5629    0.1747 H   0  0  0  0  0  0  0  0  0  0  0  0
    5.8028   -6.4116   -3.8834 H   0  0  0  0  0  0  0  0  0  0  0  0
  1  2  1  0
  1 35  1  0
  1 36  1  0
  1 37  1  0
  2  3  1  0
  2  4  1  0
  3 38  1  0
  3 39  1  0
  3 40  1  0
  4  5  2  0
  4 34  1  0
  5  6  1  0
  5 41  1  0
  6  7  2  0
  6 42  1  0
  7  8  1  0
  7 33  1  0
  8  9  1  6
  8 10  1  0
  8 14  1  0
 10 11  1  0
 10 43  1  0
 10 44  1  0
 11 12  2  0
 11 13  1  0
 13 45  1  0
 14 15  2  0
 14 32  1  0
 15 16  1  0
 16 17  1  0
 16 31  2  0
 17 18  1  0
 17 46  1  0
 17 47  1  0
 18 19  1  0
 18 48  1  0
 18 49  1  0
 19 20  1  0
 19 50  1  0
 19 51  1  0
 20 21  1  0
 20 52  1  0
 20 53  1  0
 21 22  2  0
 21 26  1  0
 22 23  1  0
 22 54  1  0
 23 24  2  0
 23 55  1  0
 24 25  1  0
 24 30  1  0
 25 26  2  0
 25 27  1  0
 27 28  1  0
 27 56  1  0
 28 29  1  0
 28 57  1  0
 28 58  1  0
 29 30  1  0
 29 59  1  0
 29 60  1  0
 30 61  1  0
 30 62  1  0
 31 32  1  0
 31 63  1  0
 33 34  2  0
 33 64  1  0
M  END

