
     RDKit          3D

 39 39  0  0  0  0  0  0  0  0999 V2000
    2.7763   -1.5374   -0.8427 C   0  0  0  0  0  0  0  0  0  0  0  0
    2.5196   -0.1632   -0.2001 C   0  0  1  0  0  0  0  0  0  0  0  0
    1.0094    0.1378   -0.1500 C   0  0  0  0  0  0  0  0  0  0  0  0
    0.6214    1.4970    0.4428 C   0  0  0  0  0  0  0  0  0  0  0  0
    1.1051    2.7044   -0.3595 C   0  0  0  0  0  0  0  0  0  0  0  0
    0.6985    3.9356    0.2023 O   0  0  0  0  0  0  0  0  0  0  0  0
    3.0993   -0.0024    1.1314 N   0  0  0  0  0  0  0  0  0  0  0  0
    4.5478   -0.0028    1.2372 C   0  0  0  0  0  0  0  0  0  0  0  0
    4.9915    0.4268    2.6418 C   0  0  0  0  0  0  0  0  0  0  0  0
    6.4437    0.4684    2.7680 N   0  0  0  0  0  0  0  0  0  0  0  0
    7.0781    1.7039    2.3078 C   0  0  0  0  0  0  0  0  0  0  0  0
    7.0812    2.7950    3.3842 C   0  0  0  0  0  0  0  0  0  0  0  0
    7.6750    2.3249    4.5815 O   0  0  0  0  0  0  0  0  0  0  0  0
    7.0147    1.1793    5.0880 C   0  0  0  0  0  0  0  0  0  0  0  0
    7.0110    0.0542    4.0483 C   0  0  0  0  0  0  0  0  0  0  0  0
    2.3547   -1.5896   -1.8598 H   0  0  0  0  0  0  0  0  0  0  0  0
    2.3089   -2.3401   -0.2456 H   0  0  0  0  0  0  0  0  0  0  0  0
    3.8528   -1.7558   -0.9175 H   0  0  0  0  0  0  0  0  0  0  0  0
    3.0037    0.5977   -0.8401 H   0  0  0  0  0  0  0  0  0  0  0  0
    0.5175   -0.6605    0.4368 H   0  0  0  0  0  0  0  0  0  0  0  0
    0.6030    0.0447   -1.1732 H   0  0  0  0  0  0  0  0  0  0  0  0
    1.0146    1.5831    1.4674 H   0  0  0  0  0  0  0  0  0  0  0  0
   -0.4821    1.5479    0.5132 H   0  0  0  0  0  0  0  0  0  0  0  0
    0.7738    2.6092   -1.4168 H   0  0  0  0  0  0  0  0  0  0  0  0
    2.2062    2.7329   -0.3748 H   0  0  0  0  0  0  0  0  0  0  0  0
   -0.2666    3.9362    0.2497 H   0  0  0  0  0  0  0  0  0  0  0  0
    2.6929   -0.6860    1.7720 H   0  0  0  0  0  0  0  0  0  0  0  0
    4.9409    0.7147    0.4955 H   0  0  0  0  0  0  0  0  0  0  0  0
    5.0339   -0.9751    1.0085 H   0  0  0  0  0  0  0  0  0  0  0  0
    4.6043   -0.3091    3.3676 H   0  0  0  0  0  0  0  0  0  0  0  0
    4.4880    1.3851    2.8855 H   0  0  0  0  0  0  0  0  0  0  0  0
    6.5761    2.0668    1.3967 H   0  0  0  0  0  0  0  0  0  0  0  0
    8.1258    1.4813    2.0339 H   0  0  0  0  0  0  0  0  0  0  0  0
    6.0445    3.1402    3.5836 H   0  0  0  0  0  0  0  0  0  0  0  0
    7.6676    3.6685    3.0577 H   0  0  0  0  0  0  0  0  0  0  0  0
    5.9732    1.4347    5.3804 H   0  0  0  0  0  0  0  0  0  0  0  0
    7.5550    0.8751    5.9989 H   0  0  0  0  0  0  0  0  0  0  0  0
    6.4657   -0.8248    4.4289 H   0  0  0  0  0  0  0  0  0  0  0  0
    8.0586   -0.2581    3.8795 H   0  0  0  0  0  0  0  0  0  0  0  0
  1  2  1  0
  1 16  1  0
  1 17  1  0
  1 18  1  0
  2  3  1  0
  2  7  1  0
  2 19  1  6
  3  4  1  0
  3 20  1  0
  3 21  1  0
  4  5  1  0
  4 22  1  0
  4 23  1  0
  5  6  1  0
  5 24  1  0
  5 25  1  0
  6 26  1  0
  7  8  1  0
  7 27  1  0
  8  9  1  0
  8 28  1  0
  8 29  1  0
  9 10  1  0
  9 30  1  0
  9 31  1  0
 10 11  1  0
 10 15  1  0
 11 12  1  0
 11 32  1  0
 11 33  1  0
 12 13  1  0
 12 34  1  0
 12 35  1  0
 13 14  1  0
 14 15  1  0
 14 36  1  0
 14 37  1  0
 15 38  1  0
 15 39  1  0
M  END

