
     RDKit          3D

100105  0  0  0  0  0  0  0  0999 V2000
   -6.9980   -6.0487    3.5008 C   0  0  0  0  0  0  0  0  0  0  0  0
   -7.4515   -5.5941    2.3221 C   0  0  0  0  0  0  0  0  0  0  0  0
   -7.9923   -6.5564    1.2913 C   0  0  0  0  0  0  0  0  0  0  0  0
   -7.5708   -4.1203    1.9260 C   0  0  1  0  0  0  0  0  0  0  0  0
   -8.6937   -3.4302    2.7464 C   0  0  0  0  0  0  0  0  0  0  0  0
   -7.9692   -2.8181    3.9463 C   0  0  0  0  0  0  0  0  0  0  0  0
   -6.6227   -2.2661    3.3783 C   0  0  1  0  0  0  0  0  0  0  0  0
   -6.8835   -0.7755    3.0634 C   0  0  0  0  0  0  0  0  0  0  0  0
   -6.5525    0.1322    3.7783 O   0  0  0  0  0  0  0  0  0  0  0  0
   -7.6022   -0.4969    1.9455 O   0  0  0  0  0  0  0  0  0  0  0  0
   -5.4595   -2.3365    4.3794 C   0  0  0  0  0  0  0  0  0  0  0  0
   -4.1443   -1.9609    3.6903 C   0  0  0  0  0  0  0  0  0  0  0  0
   -3.7181   -2.9461    2.5495 C   0  0  1  0  0  0  0  0  0  0  0  0
   -2.7362   -3.9446    3.2324 C   0  0  0  0  0  0  0  0  0  0  0  0
   -4.9465   -3.8557    2.1588 C   0  0  2  0  0  0  0  0  0  0  0  0
   -4.6703   -4.7673    0.9239 C   0  0  0  0  0  0  0  0  0  0  0  0
   -3.4650   -4.3502    0.0711 C   0  0  0  0  0  0  0  0  0  0  0  0
   -3.4731   -2.8222   -0.0659 C   0  0  1  0  0  0  0  0  0  0  0  0
   -3.0254   -2.1629    1.2853 C   0  0  2  0  0  0  0  0  0  0  0  0
   -1.4961   -2.1596    1.5201 C   0  0  0  0  0  0  0  0  0  0  0  0
   -3.4767   -0.6894    1.1235 C   0  0  0  0  0  0  0  0  0  0  0  0
   -2.8617   -0.0259   -0.1164 C   0  0  0  0  0  0  0  0  0  0  0  0
   -3.0763   -0.6636   -1.5260 C   0  0  2  0  0  0  0  0  0  0  0  0
   -1.9522   -0.0397   -2.3907 C   0  0  0  0  0  0  0  0  0  0  0  0
   -4.5161   -0.2250   -2.2110 C   0  0  2  0  0  0  0  0  0  0  0  0
   -4.3728    0.1377   -3.7261 C   0  0  0  0  0  0  0  0  0  0  0  0
   -5.0569    1.0667   -1.5643 C   0  0  0  0  0  0  0  0  0  0  0  0
   -5.5615   -1.3642   -2.2585 C   0  0  0  0  0  0  0  0  0  0  0  0
   -7.0346   -1.1066   -2.2671 C   0  0  0  0  0  0  0  0  0  0  0  0
   -7.7176   -0.4585   -1.2197 C   0  0  0  0  0  0  0  0  0  0  0  0
   -9.1056   -0.3066   -1.2391 C   0  0  0  0  0  0  0  0  0  0  0  0
   -9.8784   -0.7800   -2.3116 C   0  0  0  0  0  0  0  0  0  0  0  0
  -11.3761   -0.5745   -2.3494 C   0  0  0  0  0  0  0  0  0  0  0  0
  -11.7770    0.7783   -2.9520 C   0  0  0  0  0  0  0  0  0  0  0  0
  -13.2860    0.9804   -3.0166 C   0  0  0  0  0  0  0  0  0  0  0  0
  -14.0972    0.1626   -2.6814 O   0  0  0  0  0  0  0  0  0  0  0  0
  -13.6849    2.1820   -3.4993 O   0  0  0  0  0  0  0  0  0  0  0  0
   -9.2029   -1.4150   -3.3637 C   0  0  0  0  0  0  0  0  0  0  0  0
   -7.8152   -1.5733   -3.3435 C   0  0  0  0  0  0  0  0  0  0  0  0
   -5.1237   -2.6078   -2.5274 C   0  0  0  0  0  0  0  0  0  0  0  0
   -3.6605   -2.9053   -2.5943 C   0  0  0  0  0  0  0  0  0  0  0  0
   -2.8751   -2.2549   -1.4171 C   0  0  2  0  0  0  0  0  0  0  0  0
   -1.4073   -2.7012   -1.6158 C   0  0  0  0  0  0  0  0  0  0  0  0
   -6.3254   -3.1533    2.0992 C   0  0  1  0  0  0  0  0  0  0  0  0
   -7.0010   -7.1197    3.7249 H   0  0  0  0  0  0  0  0  0  0  0  0
   -6.6111   -5.3964    4.2852 H   0  0  0  0  0  0  0  0  0  0  0  0
   -7.9481   -7.6000    1.6358 H   0  0  0  0  0  0  0  0  0  0  0  0
   -7.4272   -6.4797    0.3460 H   0  0  0  0  0  0  0  0  0  0  0  0
   -9.0429   -6.3200    1.0456 H   0  0  0  0  0  0  0  0  0  0  0  0
   -7.8531   -4.1171    0.8627 H   0  0  0  0  0  0  0  0  0  0  0  0
   -9.4913   -4.1300    3.0374 H   0  0  0  0  0  0  0  0  0  0  0  0
   -9.1801   -2.6400    2.1482 H   0  0  0  0  0  0  0  0  0  0  0  0
   -7.7461   -3.5975    4.6906 H   0  0  0  0  0  0  0  0  0  0  0  0
   -8.5595   -2.0479    4.4667 H   0  0  0  0  0  0  0  0  0  0  0  0
   -7.7727   -1.2958    1.4265 H   0  0  0  0  0  0  0  0  0  0  0  0
   -5.4108   -3.3471    4.8151 H   0  0  0  0  0  0  0  0  0  0  0  0
   -5.6553   -1.6395    5.2066 H   0  0  0  0  0  0  0  0  0  0  0  0
   -3.3408   -1.9012    4.4421 H   0  0  0  0  0  0  0  0  0  0  0  0
   -4.2707   -0.9381    3.3239 H   0  0  0  0  0  0  0  0  0  0  0  0
   -3.2478   -4.4146    4.0874 H   0  0  0  0  0  0  0  0  0  0  0  0
   -1.8423   -3.4536    3.6359 H   0  0  0  0  0  0  0  0  0  0  0  0
   -2.4059   -4.7585    2.5721 H   0  0  0  0  0  0  0  0  0  0  0  0
   -5.0359   -4.5416    3.0061 H   0  0  0  0  0  0  0  0  0  0  0  0
   -5.5533   -4.7596    0.2648 H   0  0  0  0  0  0  0  0  0  0  0  0
   -4.5583   -5.8122    1.2530 H   0  0  0  0  0  0  0  0  0  0  0  0
   -3.5365   -4.8614   -0.8990 H   0  0  0  0  0  0  0  0  0  0  0  0
   -2.5192   -4.6969    0.5155 H   0  0  0  0  0  0  0  0  0  0  0  0
   -4.5371   -2.5532   -0.1381 H   0  0  0  0  0  0  0  0  0  0  0  0
   -1.0447   -3.1567    1.4326 H   0  0  0  0  0  0  0  0  0  0  0  0
   -1.2689   -1.7778    2.5270 H   0  0  0  0  0  0  0  0  0  0  0  0
   -0.9655   -1.5080    0.8205 H   0  0  0  0  0  0  0  0  0  0  0  0
   -3.1746   -0.0810    1.9902 H   0  0  0  0  0  0  0  0  0  0  0  0
   -4.5776   -0.6380    1.0805 H   0  0  0  0  0  0  0  0  0  0  0  0
   -1.7750    0.0139    0.0438 H   0  0  0  0  0  0  0  0  0  0  0  0
   -3.1562    1.0305   -0.1350 H   0  0  0  0  0  0  0  0  0  0  0  0
   -2.0952    1.0477   -2.4805 H   0  0  0  0  0  0  0  0  0  0  0  0
   -1.8970   -0.4523   -3.4065 H   0  0  0  0  0  0  0  0  0  0  0  0
   -0.9691   -0.1863   -1.9253 H   0  0  0  0  0  0  0  0  0  0  0  0
   -5.3747    0.3382   -4.1359 H   0  0  0  0  0  0  0  0  0  0  0  0
   -3.9353   -0.6734   -4.3224 H   0  0  0  0  0  0  0  0  0  0  0  0
   -3.7729    1.0448   -3.8846 H   0  0  0  0  0  0  0  0  0  0  0  0
   -5.9636    1.4049   -2.0850 H   0  0  0  0  0  0  0  0  0  0  0  0
   -4.3166    1.8754   -1.6574 H   0  0  0  0  0  0  0  0  0  0  0  0
   -5.3037    0.9636   -0.5002 H   0  0  0  0  0  0  0  0  0  0  0  0
   -7.1680   -0.0751   -0.3623 H   0  0  0  0  0  0  0  0  0  0  0  0
   -9.5937    0.1895   -0.3943 H   0  0  0  0  0  0  0  0  0  0  0  0
  -11.7975   -0.6431   -1.3342 H   0  0  0  0  0  0  0  0  0  0  0  0
  -11.8587   -1.3731   -2.9333 H   0  0  0  0  0  0  0  0  0  0  0  0
  -11.3708    0.8805   -3.9751 H   0  0  0  0  0  0  0  0  0  0  0  0
  -11.3343    1.6081   -2.3713 H   0  0  0  0  0  0  0  0  0  0  0  0
  -12.9193    2.7313   -3.7205 H   0  0  0  0  0  0  0  0  0  0  0  0
   -9.7718   -1.7958   -4.2176 H   0  0  0  0  0  0  0  0  0  0  0  0
   -7.3192   -2.0651   -4.1833 H   0  0  0  0  0  0  0  0  0  0  0  0
   -5.8420   -3.4231   -2.6580 H   0  0  0  0  0  0  0  0  0  0  0  0
   -3.2332   -2.5144   -3.5354 H   0  0  0  0  0  0  0  0  0  0  0  0
   -3.4799   -3.9884   -2.6308 H   0  0  0  0  0  0  0  0  0  0  0  0
   -1.3078   -3.7718   -1.3812 H   0  0  0  0  0  0  0  0  0  0  0  0
   -0.6843   -2.1649   -0.9923 H   0  0  0  0  0  0  0  0  0  0  0  0
   -1.0917   -2.5756   -2.6620 H   0  0  0  0  0  0  0  0  0  0  0  0
   -6.3205   -2.5100    1.2028 H   0  0  0  0  0  0  0  0  0  0  0  0
  1  2  2  0
  1 45  1  0
  1 46  1  0
  2  3  1  0
  2  4  1  0
  3 47  1  0
  3 48  1  0
  3 49  1  0
  4  5  1  0
  4 44  1  0
  4 50  1  6
  5  6  1  0
  5 51  1  0
  5 52  1  0
  6  7  1  0
  6 53  1  0
  6 54  1  0
  7  8  1  6
  7 11  1  0
  7 44  1  0
  8  9  2  0
  8 10  1  0
 10 55  1  0
 11 12  1  0
 11 56  1  0
 11 57  1  0
 12 13  1  0
 12 58  1  0
 12 59  1  0
 13 14  1  1
 13 15  1  0
 13 19  1  0
 14 60  1  0
 14 61  1  0
 14 62  1  0
 15 16  1  0
 15 44  1  0
 15 63  1  1
 16 17  1  0
 16 64  1  0
 16 65  1  0
 17 18  1  0
 17 66  1  0
 17 67  1  0
 18 19  1  0
 18 42  1  0
 18 68  1  6
 19 20  1  1
 19 21  1  0
 20 69  1  0
 20 70  1  0
 20 71  1  0
 21 22  1  0
 21 72  1  0
 21 73  1  0
 22 23  1  0
 22 74  1  0
 22 75  1  0
 23 24  1  6
 23 25  1  0
 23 42  1  0
 24 76  1  0
 24 77  1  0
 24 78  1  0
 25 26  1  6
 25 27  1  0
 25 28  1  0
 26 79  1  0
 26 80  1  0
 26 81  1  0
 27 82  1  0
 27 83  1  0
 27 84  1  0
 28 29  1  0
 28 40  2  0
 29 30  2  0
 29 39  1  0
 30 31  1  0
 30 85  1  0
 31 32  2  0
 31 86  1  0
 32 33  1  0
 32 38  1  0
 33 34  1  0
 33 87  1  0
 33 88  1  0
 34 35  1  0
 34 89  1  0
 34 90  1  0
 35 36  2  0
 35 37  1  0
 37 91  1  0
 38 39  2  0
 38 92  1  0
 39 93  1  0
 40 41  1  0
 40 94  1  0
 41 42  1  0
 41 95  1  0
 41 96  1  0
 42 43  1  6
 43 97  1  0
 43 98  1  0
 43 99  1  0
 44100  1  6
M  END

