
     RDKit          3D

 33 34  0  0  0  0  0  0  0  0999 V2000
    3.9644    0.1703   -0.6727 C   0  0  0  0  0  0  0  0  0  0  0  0
    2.7794   -0.4408    0.0883 C   0  0  0  0  0  0  0  0  0  0  0  0
    2.9320   -1.9119    0.3122 C   0  0  0  0  0  0  0  0  0  0  0  0
    3.9783   -2.4414    1.0360 N   0  0  0  0  0  0  0  0  0  0  0  0
    3.8108   -3.7362    1.0263 C   0  0  0  0  0  0  0  0  0  0  0  0
    4.6470   -4.7562    1.6553 C   0  0  0  0  0  0  0  0  0  0  0  0
    5.7855   -4.3470    2.3756 C   0  0  0  0  0  0  0  0  0  0  0  0
    6.6114   -5.2879    2.9923 C   0  0  0  0  0  0  0  0  0  0  0  0
    7.8344   -4.8666    3.7705 C   0  0  0  0  0  0  0  0  0  0  0  0
    6.2784   -6.6504    2.8756 C   0  0  0  0  0  0  0  0  0  0  0  0
    5.1525   -7.0843    2.1651 C   0  0  0  0  0  0  0  0  0  0  0  0
    4.8140   -8.5513    2.0489 C   0  0  0  0  0  0  0  0  0  0  0  0
    4.3374   -6.1197    1.5544 C   0  0  0  0  0  0  0  0  0  0  0  0
    2.7087   -4.1207    0.3338 O   0  0  0  0  0  0  0  0  0  0  0  0
    2.1441   -2.9500   -0.1277 C   0  0  0  0  0  0  0  0  0  0  0  0
    0.9109   -3.0269   -0.9291 C   0  0  0  0  0  0  0  0  0  0  0  0
    0.3480   -2.0578   -1.3727 O   0  0  0  0  0  0  0  0  0  0  0  0
    0.4396   -4.2745   -1.1415 O   0  0  0  0  0  0  0  0  0  0  0  0
    3.8413    1.2602   -0.7675 H   0  0  0  0  0  0  0  0  0  0  0  0
    4.0443   -0.2511   -1.6873 H   0  0  0  0  0  0  0  0  0  0  0  0
    4.9117   -0.0258   -0.1476 H   0  0  0  0  0  0  0  0  0  0  0  0
    1.8362   -0.2669   -0.4472 H   0  0  0  0  0  0  0  0  0  0  0  0
    2.6950    0.0424    1.0776 H   0  0  0  0  0  0  0  0  0  0  0  0
    6.0067   -3.2801    2.4412 H   0  0  0  0  0  0  0  0  0  0  0  0
    7.9671   -3.7753    3.7553 H   0  0  0  0  0  0  0  0  0  0  0  0
    8.7480   -5.3248    3.3568 H   0  0  0  0  0  0  0  0  0  0  0  0
    7.7650   -5.1840    4.8244 H   0  0  0  0  0  0  0  0  0  0  0  0
    6.9204   -7.3955    3.3560 H   0  0  0  0  0  0  0  0  0  0  0  0
    5.5290   -9.1772    2.6023 H   0  0  0  0  0  0  0  0  0  0  0  0
    4.8228   -8.8810    0.9965 H   0  0  0  0  0  0  0  0  0  0  0  0
    3.8060   -8.7616    2.4430 H   0  0  0  0  0  0  0  0  0  0  0  0
    3.4535   -6.4335    0.9951 H   0  0  0  0  0  0  0  0  0  0  0  0
    1.0167   -4.9254   -0.7128 H   0  0  0  0  0  0  0  0  0  0  0  0
  1  2  1  0
  1 19  1  0
  1 20  1  0
  1 21  1  0
  2  3  1  0
  2 22  1  0
  2 23  1  0
  3  4  1  0
  3 15  2  0
  4  5  2  0
  5  6  1  0
  5 14  1  0
  6  7  2  0
  6 13  1  0
  7  8  1  0
  7 24  1  0
  8  9  1  0
  8 10  2  0
  9 25  1  0
  9 26  1  0
  9 27  1  0
 10 11  1  0
 10 28  1  0
 11 12  1  0
 11 13  2  0
 12 29  1  0
 12 30  1  0
 12 31  1  0
 13 32  1  0
 14 15  1  0
 15 16  1  0
 16 17  2  0
 16 18  1  0
 18 33  1  0
M  END

