
     RDKit          3D

 41 41  0  0  0  0  0  0  0  0999 V2000
    0.4325   11.3028   -6.4412 C   0  0  0  0  0  0  0  0  0  0  0  0
    0.3940    9.7872   -6.6446 C   0  0  0  0  0  0  0  0  0  0  0  0
    1.6512    9.0441   -6.1494 C   0  0  1  0  0  0  0  0  0  0  0  0
    2.0243    9.4083   -4.7043 C   0  0  0  0  0  0  0  0  0  0  0  0
    0.7090    8.9726   -3.4981 S   0  0  0  0  0  0  0  0  0  0  0  0
    1.4159    9.7732   -2.0236 C   0  0  0  0  0  0  0  0  0  0  0  0
    1.4986    7.5807   -6.2833 N   0  0  0  0  0  0  0  0  0  0  0  0
    0.9362    7.0904   -7.5394 C   0  0  0  0  0  0  0  0  0  0  0  0
    2.6273    6.8116   -5.8532 C   0  0  0  0  0  0  0  0  0  0  0  0
    2.5409    5.9812   -4.7289 C   0  0  0  0  0  0  0  0  0  0  0  0
    3.6238    5.2038   -4.3073 C   0  0  0  0  0  0  0  0  0  0  0  0
    4.8434    5.2239   -5.0030 C   0  0  0  0  0  0  0  0  0  0  0  0
    6.0361    4.3508   -4.6042 C   0  0  2  0  0  0  0  0  0  0  0  0
    5.9501    3.4175   -5.1941 H   0  0  0  0  0  0  0  0  0  0  0  0
    6.0399    3.9506   -3.1197 C   0  0  0  0  0  0  0  0  0  0  0  0
    7.2830    4.9834   -5.0404 N   0  0  0  0  0  0  0  0  0  0  0  0
    4.9453    6.0528   -6.1321 C   0  0  0  0  0  0  0  0  0  0  0  0
    3.8568    6.8167   -6.5331 C   0  0  0  0  0  0  0  0  0  0  0  0
    3.9876    7.5990   -7.6250 F   0  0  0  0  0  0  0  0  0  0  0  0
   -0.4201   11.7806   -6.9492 H   0  0  0  0  0  0  0  0  0  0  0  0
    1.3535   11.7468   -6.8562 H   0  0  0  0  0  0  0  0  0  0  0  0
    0.3698   11.5745   -5.3762 H   0  0  0  0  0  0  0  0  0  0  0  0
    0.2707    9.5850   -7.7196 H   0  0  0  0  0  0  0  0  0  0  0  0
   -0.4921    9.3671   -6.1396 H   0  0  0  0  0  0  0  0  0  0  0  0
    2.5015    9.4034   -6.7726 H   0  0  0  0  0  0  0  0  0  0  0  0
    2.2128   10.4909   -4.6421 H   0  0  0  0  0  0  0  0  0  0  0  0
    2.9548    8.8970   -4.4136 H   0  0  0  0  0  0  0  0  0  0  0  0
    0.7201    9.5889   -1.1923 H   0  0  0  0  0  0  0  0  0  0  0  0
    1.5204   10.8612   -2.1612 H   0  0  0  0  0  0  0  0  0  0  0  0
    2.3960    9.3430   -1.7635 H   0  0  0  0  0  0  0  0  0  0  0  0
   -0.1067    7.4180   -7.6579 H   0  0  0  0  0  0  0  0  0  0  0  0
    0.9267    5.9910   -7.5141 H   0  0  0  0  0  0  0  0  0  0  0  0
    1.5044    7.4037   -8.4401 H   0  0  0  0  0  0  0  0  0  0  0  0
    1.5986    5.9759   -4.1784 H   0  0  0  0  0  0  0  0  0  0  0  0
    3.5019    4.5758   -3.4238 H   0  0  0  0  0  0  0  0  0  0  0  0
    6.9385    3.3521   -2.8991 H   0  0  0  0  0  0  0  0  0  0  0  0
    5.1669    3.3401   -2.8415 H   0  0  0  0  0  0  0  0  0  0  0  0
    6.0536    4.8410   -2.4687 H   0  0  0  0  0  0  0  0  0  0  0  0
    8.0697    4.3529   -4.8871 H   0  0  0  0  0  0  0  0  0  0  0  0
    7.4657    5.8204   -4.4829 H   0  0  0  0  0  0  0  0  0  0  0  0
    5.8784    6.0996   -6.6943 H   0  0  0  0  0  0  0  0  0  0  0  0
  1  2  1  0
  1 20  1  0
  1 21  1  0
  1 22  1  0
  2  3  1  0
  2 23  1  0
  2 24  1  0
  3  4  1  0
  3  7  1  0
  3 25  1  6
  4  5  1  0
  4 26  1  0
  4 27  1  0
  5  6  1  0
  6 28  1  0
  6 29  1  0
  6 30  1  0
  7  8  1  0
  7  9  1  0
  8 31  1  0
  8 32  1  0
  8 33  1  0
  9 10  2  0
  9 18  1  0
 10 11  1  0
 10 34  1  0
 11 12  2  0
 11 35  1  0
 12 13  1  0
 12 17  1  0
 13 14  1  6
 13 15  1  0
 13 16  1  0
 15 36  1  0
 15 37  1  0
 15 38  1  0
 16 39  1  0
 16 40  1  0
 17 18  2  0
 17 41  1  0
 18 19  1  0
M  END

