
     RDKit          3D

 46 51  0  0  0  0  0  0  0  0999 V2000
    3.4586    1.1768   -0.6188 C   0  0  0  0  0  0  0  0  0  0  0  0
    3.4213   -0.0465   -1.2961 C   0  0  0  0  0  0  0  0  0  0  0  0
    2.3201   -0.8921   -1.1541 C   0  0  0  0  0  0  0  0  0  0  0  0
    1.2423   -0.5306   -0.3288 C   0  0  0  0  0  0  0  0  0  0  0  0
    1.2618    0.7268    0.3147 C   0  0  0  0  0  0  0  0  0  0  0  0
    2.3754    1.5624    0.1754 C   0  0  0  0  0  0  0  0  0  0  0  0
    0.0251    1.1294    1.0911 C   0  0  0  0  0  0  0  0  0  0  0  0
   -1.2110    0.7554    0.2997 C   0  0  0  0  0  0  0  0  0  0  0  0
   -2.3033    1.6164    0.1474 C   0  0  0  0  0  0  0  0  0  0  0  0
   -3.3857    1.2557   -0.6595 C   0  0  0  0  0  0  0  0  0  0  0  0
   -3.3686    0.0318   -1.3365 C   0  0  0  0  0  0  0  0  0  0  0  0
   -2.2889   -0.8389   -1.1815 C   0  0  0  0  0  0  0  0  0  0  0  0
   -1.2128   -0.5022   -0.3437 C   0  0  0  0  0  0  0  0  0  0  0  0
    0.0040   -1.3531   -0.1675 C   0  0  0  0  0  0  0  0  0  0  0  0
   -0.0132   -2.6901    0.1261 C   0  0  0  0  0  0  0  0  0  0  0  0
    1.1974   -3.5410    0.2869 C   0  0  0  0  0  0  0  0  0  0  0  0
    2.3854   -3.1652    0.9417 C   0  0  0  0  0  0  0  0  0  0  0  0
    3.4809   -4.0247    0.9991 C   0  0  0  0  0  0  0  0  0  0  0  0
    3.4137   -5.2911    0.4026 C   0  0  0  0  0  0  0  0  0  0  0  0
    2.2316   -5.7126   -0.2031 C   0  0  0  0  0  0  0  0  0  0  0  0
    1.1310   -4.8507   -0.2289 C   0  0  0  0  0  0  0  0  0  0  0  0
   -0.0381   -5.3347   -0.7588 O   0  0  0  0  0  0  0  0  0  0  0  0
   -1.2023   -4.8240   -0.2432 C   0  0  0  0  0  0  0  0  0  0  0  0
   -2.3226   -5.6604   -0.2311 C   0  0  0  0  0  0  0  0  0  0  0  0
   -3.5020   -5.2119    0.3600 C   0  0  0  0  0  0  0  0  0  0  0  0
   -3.5476   -3.9441    0.9558 C   0  0  0  0  0  0  0  0  0  0  0  0
   -2.4321   -3.1100    0.9120 C   0  0  0  0  0  0  0  0  0  0  0  0
   -1.2449   -3.5131    0.2720 C   0  0  0  0  0  0  0  0  0  0  0  0
    4.3204    1.8402   -0.7275 H   0  0  0  0  0  0  0  0  0  0  0  0
    4.2507   -0.3409   -1.9442 H   0  0  0  0  0  0  0  0  0  0  0  0
    2.2918   -1.8408   -1.6926 H   0  0  0  0  0  0  0  0  0  0  0  0
    2.3862    2.5323    0.6812 H   0  0  0  0  0  0  0  0  0  0  0  0
    0.0362    2.2044    1.3234 H   0  0  0  0  0  0  0  0  0  0  0  0
    0.0130    0.5953    2.0618 H   0  0  0  0  0  0  0  0  0  0  0  0
   -2.2978    2.5863    0.6533 H   0  0  0  0  0  0  0  0  0  0  0  0
   -4.2306    1.9389   -0.7783 H   0  0  0  0  0  0  0  0  0  0  0  0
   -4.1968   -0.2436   -1.9943 H   0  0  0  0  0  0  0  0  0  0  0  0
   -2.2763   -1.7882   -1.7197 H   0  0  0  0  0  0  0  0  0  0  0  0
    2.4470   -2.1805    1.4052 H   0  0  0  0  0  0  0  0  0  0  0  0
    4.3929   -3.7060    1.5091 H   0  0  0  0  0  0  0  0  0  0  0  0
    4.2754   -5.9623    0.4352 H   0  0  0  0  0  0  0  0  0  0  0  0
    2.1274   -6.7090   -0.6366 H   0  0  0  0  0  0  0  0  0  0  0  0
   -2.2359   -6.6590   -0.6634 H   0  0  0  0  0  0  0  0  0  0  0  0
   -4.3793   -5.8631    0.3818 H   0  0  0  0  0  0  0  0  0  0  0  0
   -4.4583   -3.6045    1.4544 H   0  0  0  0  0  0  0  0  0  0  0  0
   -2.4769   -2.1241    1.3749 H   0  0  0  0  0  0  0  0  0  0  0  0
  1  2  2  0
  1  6  1  0
  1 29  1  0
  2  3  1  0
  2 30  1  0
  3  4  2  0
  3 31  1  0
  4  5  1  0
  4 14  1  0
  5  6  2  0
  5  7  1  0
  6 32  1  0
  7  8  1  0
  7 33  1  0
  7 34  1  0
  8  9  2  0
  8 13  1  0
  9 10  1  0
  9 35  1  0
 10 11  2  0
 10 36  1  0
 11 12  1  0
 11 37  1  0
 12 13  2  0
 12 38  1  0
 13 14  1  0
 14 15  2  0
 15 16  1  0
 15 28  1  0
 16 17  2  0
 16 21  1  0
 17 18  1  0
 17 39  1  0
 18 19  2  0
 18 40  1  0
 19 20  1  0
 19 41  1  0
 20 21  2  0
 20 42  1  0
 21 22  1  0
 22 23  1  0
 23 24  2  0
 23 28  1  0
 24 25  1  0
 24 43  1  0
 25 26  2  0
 25 44  1  0
 26 27  1  0
 26 45  1  0
 27 28  2  0
 27 46  1  0
M  END

