
     RDKit          3D

 34 34  0  0  0  0  0  0  0  0999 V2000
    1.1487    0.8798    0.6264 C   0  0  0  0  0  0  0  0  0  0  0  0
    2.5799    0.7043    0.6454 N   0  0  0  0  0  0  0  0  0  0  0  0
    3.0743   -0.4490    0.9165 C   0  0  0  0  0  0  0  0  0  0  0  0
    2.2415   -1.5311    1.2297 N   0  0  0  0  0  0  0  0  0  0  0  0
    2.7504   -2.8296    1.2638 O   0  0  0  0  0  0  0  0  0  0  0  0
    2.7345   -3.3401    2.5891 C   0  0  0  0  0  0  0  0  0  0  0  0
    4.5609   -0.5816    1.0080 C   0  0  0  0  0  0  0  0  0  0  0  0
    5.2877    0.5400    1.4364 C   0  0  0  0  0  0  0  0  0  0  0  0
    6.6797    0.5255    1.4973 C   0  0  0  0  0  0  0  0  0  0  0  0
    7.4075   -0.6142    1.1120 C   0  0  0  0  0  0  0  0  0  0  0  0
    8.7504   -0.7238    1.1180 O   0  0  0  0  0  0  0  0  0  0  0  0
    9.6000    0.3445    1.5626 C   0  0  1  0  0  0  0  0  0  0  0  0
    9.6892    0.3600    3.0872 C   0  0  0  0  0  0  0  0  0  0  0  0
   10.9479    0.1091    0.8938 C   0  0  0  0  0  0  0  0  0  0  0  0
    6.6733   -1.7365    0.6670 C   0  0  0  0  0  0  0  0  0  0  0  0
    7.5375   -3.1688    0.1585 Cl  0  0  0  0  0  0  0  0  0  0  0  0
    5.2823   -1.7245    0.6169 C   0  0  0  0  0  0  0  0  0  0  0  0
    0.9006    1.9276    0.3989 H   0  0  0  0  0  0  0  0  0  0  0  0
    0.6745    0.6213    1.5957 H   0  0  0  0  0  0  0  0  0  0  0  0
    0.6457    0.2586   -0.1473 H   0  0  0  0  0  0  0  0  0  0  0  0
    1.3446   -1.5368    0.7470 H   0  0  0  0  0  0  0  0  0  0  0  0
    3.1245   -4.3658    2.5182 H   0  0  0  0  0  0  0  0  0  0  0  0
    1.7090   -3.3632    2.9980 H   0  0  0  0  0  0  0  0  0  0  0  0
    3.3796   -2.7466    3.2590 H   0  0  0  0  0  0  0  0  0  0  0  0
    4.7360    1.4381    1.7163 H   0  0  0  0  0  0  0  0  0  0  0  0
    7.2008    1.4156    1.8495 H   0  0  0  0  0  0  0  0  0  0  0  0
    9.1873    1.3034    1.2009 H   0  0  0  0  0  0  0  0  0  0  0  0
   10.1077   -0.5916    3.4512 H   0  0  0  0  0  0  0  0  0  0  0  0
    8.7017    0.4990    3.5517 H   0  0  0  0  0  0  0  0  0  0  0  0
   10.3433    1.1793    3.4250 H   0  0  0  0  0  0  0  0  0  0  0  0
   11.3644   -0.8618    1.2042 H   0  0  0  0  0  0  0  0  0  0  0  0
   11.6596    0.9013    1.1726 H   0  0  0  0  0  0  0  0  0  0  0  0
   10.8403    0.1022   -0.2009 H   0  0  0  0  0  0  0  0  0  0  0  0
    4.7677   -2.6118    0.2573 H   0  0  0  0  0  0  0  0  0  0  0  0
  1  2  1  0
  1 18  1  0
  1 19  1  0
  1 20  1  0
  2  3  2  0
  3  4  1  0
  3  7  1  0
  4  5  1  0
  4 21  1  0
  5  6  1  0
  6 22  1  0
  6 23  1  0
  6 24  1  0
  7  8  2  0
  7 17  1  0
  8  9  1  0
  8 25  1  0
  9 10  2  0
  9 26  1  0
 10 11  1  0
 10 15  1  0
 11 12  1  0
 12 13  1  0
 12 14  1  0
 12 27  1  6
 13 28  1  0
 13 29  1  0
 13 30  1  0
 14 31  1  0
 14 32  1  0
 14 33  1  0
 15 16  1  0
 15 17  2  0
 17 34  1  0
M  END

