
     RDKit          3D

 29 30  0  0  0  0  0  0  0  0999 V2000
    3.6479    0.8426    0.5072 C   0  0  0  0  0  0  0  0  0  0  0  0
    2.4989    0.0041   -0.0785 C   0  0  1  0  0  0  0  0  0  0  0  0
    1.4581    0.8883   -0.7884 C   0  0  0  0  0  0  0  0  0  0  0  0
    3.0133   -1.0936   -0.9982 C   0  0  0  0  0  0  0  0  0  0  0  0
    3.7500   -0.7950   -2.1453 C   0  0  0  0  0  0  0  0  0  0  0  0
    4.2092   -1.8181   -2.9834 C   0  0  0  0  0  0  0  0  0  0  0  0
    4.9211   -1.4490   -4.0718 O   0  0  0  0  0  0  0  0  0  0  0  0
    5.4508   -2.4413   -4.9155 C   0  0  1  0  0  0  0  0  0  0  0  0
    4.5861   -3.0036   -6.0106 C   0  0  0  0  0  0  0  0  0  0  0  0
    5.6930   -2.0198   -6.3262 C   0  0  0  0  0  0  0  0  0  0  0  0
    3.9048   -3.1498   -2.6356 C   0  0  0  0  0  0  0  0  0  0  0  0
    3.2070   -3.4519   -1.5493 N   0  0  0  0  0  0  0  0  0  0  0  0
    2.7719   -2.4686   -0.7516 C   0  0  0  0  0  0  0  0  0  0  0  0
    2.0172   -2.8877    0.4095 C   0  0  0  0  0  0  0  0  0  0  0  0
    1.4126   -3.2190    1.3435 N   0  0  0  0  0  0  0  0  0  0  0  0
    3.2546    1.5824    1.2224 H   0  0  0  0  0  0  0  0  0  0  0  0
    4.1897    1.3961   -0.2773 H   0  0  0  0  0  0  0  0  0  0  0  0
    4.3762    0.2112    1.0393 H   0  0  0  0  0  0  0  0  0  0  0  0
    1.9900   -0.4900    0.7637 H   0  0  0  0  0  0  0  0  0  0  0  0
    1.9018    1.4324   -1.6385 H   0  0  0  0  0  0  0  0  0  0  0  0
    1.0508    1.6364   -0.0898 H   0  0  0  0  0  0  0  0  0  0  0  0
    0.6172    0.2902   -1.1721 H   0  0  0  0  0  0  0  0  0  0  0  0
    3.9870    0.2361   -2.4166 H   0  0  0  0  0  0  0  0  0  0  0  0
    6.1790   -3.0952   -4.4201 H   0  0  0  0  0  0  0  0  0  0  0  0
    3.5585   -2.6344   -6.0661 H   0  0  0  0  0  0  0  0  0  0  0  0
    4.7119   -4.0551   -6.2842 H   0  0  0  0  0  0  0  0  0  0  0  0
    5.3970   -0.9987   -6.5811 H   0  0  0  0  0  0  0  0  0  0  0  0
    6.5985   -2.3758   -6.8242 H   0  0  0  0  0  0  0  0  0  0  0  0
    4.2325   -3.9847   -3.2610 H   0  0  0  0  0  0  0  0  0  0  0  0
  1  2  1  0
  1 16  1  0
  1 17  1  0
  1 18  1  0
  2  3  1  0
  2  4  1  0
  2 19  1  1
  3 20  1  0
  3 21  1  0
  3 22  1  0
  4  5  2  0
  4 13  1  0
  5  6  1  0
  5 23  1  0
  6  7  1  0
  6 11  2  0
  7  8  1  0
  8  9  1  0
  8 10  1  0
  8 24  1  1
  9 10  1  0
  9 25  1  0
  9 26  1  0
 10 27  1  0
 10 28  1  0
 11 12  1  0
 11 29  1  0
 12 13  2  0
 13 14  1  0
 14 15  3  0
M  END

