
     RDKit          3D

 40 42  0  0  0  0  0  0  0  0999 V2000
    0.7903    4.1182    3.3776 C   0  0  0  0  0  0  0  0  0  0  0  0
    1.9606    3.5115    3.8819 O   0  0  0  0  0  0  0  0  0  0  0  0
    2.5113    2.4729    3.2139 C   0  0  0  0  0  0  0  0  0  0  0  0
    1.9996    1.9228    2.0295 C   0  0  0  0  0  0  0  0  0  0  0  0
    2.6656    0.8532    1.4277 C   0  0  0  0  0  0  0  0  0  0  0  0
    3.8211    0.3122    1.9925 C   0  0  0  0  0  0  0  0  0  0  0  0
    4.6443   -1.1112    0.9952 Br  0  0  0  0  0  0  0  0  0  0  0  0
    4.3476    0.8425    3.1922 C   0  0  0  0  0  0  0  0  0  0  0  0
    5.5837    0.4189    3.9678 C   0  0  0  0  0  0  0  0  0  0  0  0
    6.1791    1.2217    4.6626 O   0  0  0  0  0  0  0  0  0  0  0  0
    5.9355   -0.9107    3.9101 N   0  0  0  0  0  0  0  0  0  0  0  0
    7.0118   -1.4685    4.5957 C   0  0  0  0  0  0  0  0  0  0  0  0
    8.0088   -0.9057    5.3833 C   0  0  0  0  0  0  0  0  0  0  0  0
    8.7863   -2.0159    5.7881 C   0  0  0  0  0  0  0  0  0  0  0  0
    8.3224   -3.1619    5.3061 N   0  0  0  0  0  0  0  0  0  0  0  0
    7.2289   -2.8234    4.5830 N   0  0  0  0  0  0  0  0  0  0  0  0
    6.4789   -3.8575    3.9035 C   0  0  0  0  0  0  0  0  0  0  0  0
    6.9430   -4.1517    2.4858 C   0  0  0  0  0  0  0  0  0  0  0  0
    8.2252   -3.7923    2.0465 C   0  0  0  0  0  0  0  0  0  0  0  0
    8.6653   -4.0753    0.7531 C   0  0  0  0  0  0  0  0  0  0  0  0
    7.8096   -4.7397   -0.1287 C   0  0  0  0  0  0  0  0  0  0  0  0
    8.3396   -5.1012   -1.7529 Cl  0  0  0  0  0  0  0  0  0  0  0  0
    6.5290   -5.1243    0.2738 C   0  0  0  0  0  0  0  0  0  0  0  0
    6.1145   -4.8282    1.5745 C   0  0  0  0  0  0  0  0  0  0  0  0
    4.5061   -5.3375    2.0593 Cl  0  0  0  0  0  0  0  0  0  0  0  0
    3.6781    1.9298    3.7680 C   0  0  0  0  0  0  0  0  0  0  0  0
    0.5341    4.9275    4.0738 H   0  0  0  0  0  0  0  0  0  0  0  0
   -0.0534    3.4063    3.3306 H   0  0  0  0  0  0  0  0  0  0  0  0
    0.9518    4.5484    2.3728 H   0  0  0  0  0  0  0  0  0  0  0  0
    1.0973    2.3149    1.5603 H   0  0  0  0  0  0  0  0  0  0  0  0
    2.2801    0.4375    0.4954 H   0  0  0  0  0  0  0  0  0  0  0  0
    5.4343   -1.5036    3.2563 H   0  0  0  0  0  0  0  0  0  0  0  0
    8.1234    0.1450    5.6198 H   0  0  0  0  0  0  0  0  0  0  0  0
    9.6725   -2.0162    6.4229 H   0  0  0  0  0  0  0  0  0  0  0  0
    5.4101   -3.5949    3.9040 H   0  0  0  0  0  0  0  0  0  0  0  0
    6.5708   -4.7634    4.5230 H   0  0  0  0  0  0  0  0  0  0  0  0
    8.8960   -3.2878    2.7442 H   0  0  0  0  0  0  0  0  0  0  0  0
    9.6661   -3.7867    0.4292 H   0  0  0  0  0  0  0  0  0  0  0  0
    5.8620   -5.6472   -0.4111 H   0  0  0  0  0  0  0  0  0  0  0  0
    4.0879    2.3697    4.6775 H   0  0  0  0  0  0  0  0  0  0  0  0
  1  2  1  0
  1 27  1  0
  1 28  1  0
  1 29  1  0
  2  3  1  0
  3  4  2  0
  3 26  1  0
  4  5  1  0
  4 30  1  0
  5  6  2  0
  5 31  1  0
  6  7  1  0
  6  8  1  0
  8  9  1  0
  8 26  2  0
  9 10  2  0
  9 11  1  0
 11 12  1  0
 11 32  1  0
 12 13  2  0
 12 16  1  0
 13 14  1  0
 13 33  1  0
 14 15  2  0
 14 34  1  0
 15 16  1  0
 16 17  1  0
 17 18  1  0
 17 35  1  0
 17 36  1  0
 18 19  2  0
 18 24  1  0
 19 20  1  0
 19 37  1  0
 20 21  2  0
 20 38  1  0
 21 22  1  0
 21 23  1  0
 23 24  2  0
 23 39  1  0
 24 25  1  0
 26 40  1  0
M  END

