
     RDKit          3D

 40 40  0  0  0  0  0  0  0  0999 V2000
    0.9309    0.1982   -0.4091 C   0  0  0  0  0  0  0  0  0  0  0  0
    2.4541    0.0866   -0.3307 C   0  0  0  0  0  0  0  0  0  0  0  0
    3.1253    1.3490    0.2169 C   0  0  0  0  0  0  0  0  0  0  0  0
    4.6401    1.2393    0.2959 C   0  0  0  0  0  0  0  0  0  0  0  0
    5.1652    2.4446    0.8078 O   0  0  0  0  0  0  0  0  0  0  0  0
    6.5612    2.4662    0.9290 C   0  0  0  0  0  0  0  0  0  0  0  0
    6.9484    3.8272    1.4831 C   0  0  0  0  0  0  0  0  0  0  0  0
    8.3593    3.8452    1.6096 O   0  0  0  0  0  0  0  0  0  0  0  0
    8.9810    4.9502    2.0773 C   0  0  0  0  0  0  0  0  0  0  0  0
    8.3219    6.1242    2.4688 C   0  0  0  0  0  0  0  0  0  0  0  0
    9.0797    7.1991    2.9363 C   0  0  0  0  0  0  0  0  0  0  0  0
   10.4705    7.1141    3.0162 C   0  0  0  0  0  0  0  0  0  0  0  0
   11.3291    8.5781    3.5888 S   0  0  1  0  0  0  0  0  0  0  0  0
   12.0459    8.0597    5.0396 N   0  0  0  0  0  0  0  0  0  0  0  0
   12.4549    8.8824    2.7011 O   0  0  0  0  0  0  0  0  0  0  0  0
   10.3158    9.5953    3.8883 O   0  0  0  0  0  0  0  0  0  0  0  0
   11.1591    5.9400    2.6206 C   0  0  0  0  0  0  0  0  0  0  0  0
   12.6590    5.8089    2.6800 C   0  0  0  0  0  0  0  0  0  0  0  0
   10.3842    4.8763    2.1598 C   0  0  0  0  0  0  0  0  0  0  0  0
    0.4784   -0.7242   -0.8064 H   0  0  0  0  0  0  0  0  0  0  0  0
    0.6237    1.0297   -1.0651 H   0  0  0  0  0  0  0  0  0  0  0  0
    0.4914    0.3840    0.5851 H   0  0  0  0  0  0  0  0  0  0  0  0
    2.8582   -0.1371   -1.3349 H   0  0  0  0  0  0  0  0  0  0  0  0
    2.7270   -0.7776    0.3021 H   0  0  0  0  0  0  0  0  0  0  0  0
    2.7394    1.5774    1.2260 H   0  0  0  0  0  0  0  0  0  0  0  0
    2.8715    2.2186   -0.4144 H   0  0  0  0  0  0  0  0  0  0  0  0
    5.0654    1.0316   -0.7093 H   0  0  0  0  0  0  0  0  0  0  0  0
    4.9325    0.3866    0.9454 H   0  0  0  0  0  0  0  0  0  0  0  0
    7.0608    2.3090   -0.0493 H   0  0  0  0  0  0  0  0  0  0  0  0
    6.9265    1.6709    1.6112 H   0  0  0  0  0  0  0  0  0  0  0  0
    6.4601    3.9839    2.4617 H   0  0  0  0  0  0  0  0  0  0  0  0
    6.6011    4.6214    0.7983 H   0  0  0  0  0  0  0  0  0  0  0  0
    7.2376    6.2153    2.4146 H   0  0  0  0  0  0  0  0  0  0  0  0
    8.5920    8.1253    3.2434 H   0  0  0  0  0  0  0  0  0  0  0  0
   12.9519    8.5245    5.1230 H   0  0  0  0  0  0  0  0  0  0  0  0
   11.4444    8.2899    5.8318 H   0  0  0  0  0  0  0  0  0  0  0  0
   13.1437    6.5768    2.0598 H   0  0  0  0  0  0  0  0  0  0  0  0
   12.9764    4.8140    2.3382 H   0  0  0  0  0  0  0  0  0  0  0  0
   13.0201    5.9612    3.7092 H   0  0  0  0  0  0  0  0  0  0  0  0
   10.8618    3.9466    1.8434 H   0  0  0  0  0  0  0  0  0  0  0  0
  1  2  1  0
  1 20  1  0
  1 21  1  0
  1 22  1  0
  2  3  1  0
  2 23  1  0
  2 24  1  0
  3  4  1  0
  3 25  1  0
  3 26  1  0
  4  5  1  0
  4 27  1  0
  4 28  1  0
  5  6  1  0
  6  7  1  0
  6 29  1  0
  6 30  1  0
  7  8  1  0
  7 31  1  0
  7 32  1  0
  8  9  1  0
  9 10  2  0
  9 19  1  0
 10 11  1  0
 10 33  1  0
 11 12  2  0
 11 34  1  0
 12 13  1  0
 12 17  1  0
 13 14  1  1
 13 15  2  0
 13 16  2  0
 14 35  1  0
 14 36  1  0
 17 18  1  0
 17 19  2  0
 18 37  1  0
 18 38  1  0
 18 39  1  0
 19 40  1  0
M  END

