
     RDKit          3D

 52 56  0  0  0  0  0  0  0  0999 V2000
    1.0305    0.3588   -0.6682 C   0  0  0  0  0  0  0  0  0  0  0  0
    2.4995    0.4477   -0.4193 C   0  0  0  0  0  0  0  0  0  0  0  0
    3.0169    0.9004    0.7432 N   0  0  0  0  0  0  0  0  0  0  0  0
    4.4068    0.8492    0.6642 C   0  0  0  0  0  0  0  0  0  0  0  0
    5.2228    1.2341    1.7501 C   0  0  0  0  0  0  0  0  0  0  0  0
    6.6949    1.1926    1.6282 C   0  0  0  0  0  0  0  0  0  0  0  0
    7.3625    1.7986    0.5434 C   0  0  0  0  0  0  0  0  0  0  0  0
    8.7460    1.7702    0.4307 C   0  0  0  0  0  0  0  0  0  0  0  0
    9.5558    1.1126    1.3908 C   0  0  0  0  0  0  0  0  0  0  0  0
   10.9458    1.1124    1.2830 N   0  0  0  0  0  0  0  0  0  0  0  0
   11.5752    0.9660   -0.0318 C   0  0  0  0  0  0  0  0  0  0  0  0
   12.9558    1.6217   -0.0846 C   0  0  0  0  0  0  0  0  0  0  0  0
   13.8568    1.0844    1.0300 C   0  0  0  0  0  0  0  0  0  0  0  0
   13.1590    1.2411    2.3827 C   0  0  0  0  0  0  0  0  0  0  0  0
   11.7613    0.6109    2.3840 C   0  0  0  0  0  0  0  0  0  0  0  0
    8.8815    0.4903    2.4687 C   0  0  0  0  0  0  0  0  0  0  0  0
    7.4950    0.5452    2.5870 C   0  0  0  0  0  0  0  0  0  0  0  0
    4.6200    1.6585    2.9540 C   0  0  0  0  0  0  0  0  0  0  0  0
    5.1974    2.1614    4.1516 C   0  0  0  0  0  0  0  0  0  0  0  0
    4.1496    2.4613    5.0150 C   0  0  0  0  0  0  0  0  0  0  0  0
    2.9437    2.1578    4.3373 C   0  0  0  0  0  0  0  0  0  0  0  0
    1.5435    2.3231    4.8275 C   0  0  0  0  0  0  0  0  0  0  0  0
    3.2355    1.6820    3.1074 N   0  0  0  0  0  0  0  0  0  0  0  0
    2.1933    1.3136    2.0043 B   0  0  1  0  0  0  0  0  0  0  0  0
    1.3965    2.4185    1.7149 F   0  0  0  0  0  0  0  0  0  0  0  0
    1.4048    0.2466    2.4272 F   0  0  0  0  0  0  0  0  0  0  0  0
    4.7493    0.3238   -0.6114 C   0  0  0  0  0  0  0  0  0  0  0  0
    3.5580    0.0850   -1.2874 C   0  0  0  0  0  0  0  0  0  0  0  0
    0.5567   -0.3247    0.0541 H   0  0  0  0  0  0  0  0  0  0  0  0
    0.8311    0.0017   -1.6876 H   0  0  0  0  0  0  0  0  0  0  0  0
    0.5532    1.3412   -0.5270 H   0  0  0  0  0  0  0  0  0  0  0  0
    6.7825    2.3438   -0.2040 H   0  0  0  0  0  0  0  0  0  0  0  0
    9.2090    2.3037   -0.4001 H   0  0  0  0  0  0  0  0  0  0  0  0
   10.9261    1.3976   -0.8020 H   0  0  0  0  0  0  0  0  0  0  0  0
   11.6761   -0.1150   -0.2753 H   0  0  0  0  0  0  0  0  0  0  0  0
   12.8391    2.7141    0.0248 H   0  0  0  0  0  0  0  0  0  0  0  0
   13.4028    1.4402   -1.0761 H   0  0  0  0  0  0  0  0  0  0  0  0
   14.8299    1.6022    1.0322 H   0  0  0  0  0  0  0  0  0  0  0  0
   14.0696    0.0150    0.8452 H   0  0  0  0  0  0  0  0  0  0  0  0
   13.0605    2.3142    2.6223 H   0  0  0  0  0  0  0  0  0  0  0  0
   13.7552    0.7844    3.1900 H   0  0  0  0  0  0  0  0  0  0  0  0
   11.2647    0.8544    3.3327 H   0  0  0  0  0  0  0  0  0  0  0  0
   11.8512   -0.4975    2.3395 H   0  0  0  0  0  0  0  0  0  0  0  0
    9.4390   -0.0717    3.2171 H   0  0  0  0  0  0  0  0  0  0  0  0
    7.0166    0.0295    3.4221 H   0  0  0  0  0  0  0  0  0  0  0  0
    6.2607    2.2966    4.3317 H   0  0  0  0  0  0  0  0  0  0  0  0
    4.2166    2.8669    6.0228 H   0  0  0  0  0  0  0  0  0  0  0  0
    1.5363    2.6933    5.8616 H   0  0  0  0  0  0  0  0  0  0  0  0
    1.0007    1.3659    4.7807 H   0  0  0  0  0  0  0  0  0  0  0  0
    0.9900    3.0273    4.1865 H   0  0  0  0  0  0  0  0  0  0  0  0
    5.7591    0.1343   -0.9661 H   0  0  0  0  0  0  0  0  0  0  0  0
    3.4348   -0.3169   -2.2914 H   0  0  0  0  0  0  0  0  0  0  0  0
  1  2  1  0
  1 29  1  0
  1 30  1  0
  1 31  1  0
  2  3  1  0
  2 28  2  0
  3  4  1  0
  3 24  1  0
  4  5  1  0
  4 27  2  0
  5  6  1  0
  5 18  2  0
  6  7  2  0
  6 17  1  0
  7  8  1  0
  7 32  1  0
  8  9  2  0
  8 33  1  0
  9 10  1  0
  9 16  1  0
 10 11  1  0
 10 15  1  0
 11 12  1  0
 11 34  1  0
 11 35  1  0
 12 13  1  0
 12 36  1  0
 12 37  1  0
 13 14  1  0
 13 38  1  0
 13 39  1  0
 14 15  1  0
 14 40  1  0
 14 41  1  0
 15 42  1  0
 15 43  1  0
 16 17  2  0
 16 44  1  0
 17 45  1  0
 18 19  1  0
 18 23  1  0
 19 20  2  0
 19 46  1  0
 20 21  1  0
 20 47  1  0
 21 22  1  0
 21 23  2  0
 22 48  1  0
 22 49  1  0
 22 50  1  0
 23 24  1  0
 24 25  1  6
 24 26  1  0
 27 28  1  0
 27 51  1  0
 28 52  1  0
M  CHG  2  23   1  24  -1
M  END

