
     RDKit          3D

 46 48  0  0  0  0  0  0  0  0999 V2000
    4.8990    0.2563    1.0361 C   0  0  0  0  0  0  0  0  0  0  0  0
    3.4602   -0.0612    0.6263 C   0  0  0  0  0  0  0  0  0  0  0  0
    3.3312   -0.7926   -0.7243 C   0  0  1  0  0  0  0  0  0  0  0  0
    1.8790   -1.2125   -1.0073 C   0  0  0  0  0  0  0  0  0  0  0  0
    3.7940    0.1375   -1.8531 C   0  0  0  0  0  0  0  0  0  0  0  0
    3.2654    1.2283   -2.0015 O   0  0  0  0  0  0  0  0  0  0  0  0
    4.8047   -0.2761   -2.6963 N   0  0  0  0  0  0  0  0  0  0  0  0
    5.2537    0.6313   -3.7405 C   0  0  0  0  0  0  0  0  0  0  0  0
    7.0628    0.3740   -3.8445 S   0  0  0  0  0  0  0  0  0  0  0  0
    6.7436   -1.4094   -3.6009 C   0  0  0  0  0  0  0  0  0  0  0  0
    5.5650   -1.5174   -2.5937 C   0  0  2  0  0  0  0  0  0  0  0  0
    4.6956   -2.7441   -2.9605 C   0  0  0  0  0  0  0  0  0  0  0  0
    3.7077   -2.6069   -3.6588 O   0  0  0  0  0  0  0  0  0  0  0  0
    5.0966   -3.9784   -2.4944 N   0  0  0  0  0  0  0  0  0  0  0  0
    6.2828   -4.2837   -1.6958 C   0  0  0  0  0  0  0  0  0  0  0  0
    7.2017   -5.2653   -2.4426 C   0  0  0  0  0  0  0  0  0  0  0  0
    6.4269   -6.3781   -2.9423 N   0  0  0  0  0  0  0  0  0  0  0  0
    6.6102   -7.6920   -2.5778 C   0  0  0  0  0  0  0  0  0  0  0  0
    7.5194   -8.1704   -1.9431 O   0  0  0  0  0  0  0  0  0  0  0  0
    5.4955   -8.3852   -3.0951 N   0  0  0  0  0  0  0  0  0  0  0  0
    4.5643   -7.5654   -3.7004 C   0  0  0  0  0  0  0  0  0  0  0  0
    3.5043   -7.8823   -4.1784 O   0  0  0  0  0  0  0  0  0  0  0  0
    5.1614   -6.1528   -3.6207 C   0  0  1  0  0  0  0  0  0  0  0  0
    4.2951   -5.1521   -2.8390 C   0  0  0  0  0  0  0  0  0  0  0  0
    4.9309    0.7753    2.0072 H   0  0  0  0  0  0  0  0  0  0  0  0
    5.3967    0.9098    0.3009 H   0  0  0  0  0  0  0  0  0  0  0  0
    5.5053   -0.6610    1.1357 H   0  0  0  0  0  0  0  0  0  0  0  0
    2.8756    0.8709    0.5617 H   0  0  0  0  0  0  0  0  0  0  0  0
    2.9813   -0.6841    1.4015 H   0  0  0  0  0  0  0  0  0  0  0  0
    3.9523   -1.7015   -0.6810 H   0  0  0  0  0  0  0  0  0  0  0  0
    1.2379   -0.3206   -1.0725 H   0  0  0  0  0  0  0  0  0  0  0  0
    1.4990   -1.8584   -0.1997 H   0  0  0  0  0  0  0  0  0  0  0  0
    1.8034   -1.7604   -1.9585 H   0  0  0  0  0  0  0  0  0  0  0  0
    5.0139    1.6644   -3.4619 H   0  0  0  0  0  0  0  0  0  0  0  0
    4.7813    0.3982   -4.7099 H   0  0  0  0  0  0  0  0  0  0  0  0
    7.6542   -1.8983   -3.2279 H   0  0  0  0  0  0  0  0  0  0  0  0
    6.4693   -1.8682   -4.5639 H   0  0  0  0  0  0  0  0  0  0  0  0
    5.9666   -1.6081   -1.5738 H   0  0  0  0  0  0  0  0  0  0  0  0
    5.9633   -4.7406   -0.7411 H   0  0  0  0  0  0  0  0  0  0  0  0
    6.8366   -3.3704   -1.4530 H   0  0  0  0  0  0  0  0  0  0  0  0
    7.9801   -5.6650   -1.7768 H   0  0  0  0  0  0  0  0  0  0  0  0
    7.6989   -4.7428   -3.2807 H   0  0  0  0  0  0  0  0  0  0  0  0
    5.3834   -9.3871   -2.9806 H   0  0  0  0  0  0  0  0  0  0  0  0
    5.3161   -5.7724   -4.6479 H   0  0  0  0  0  0  0  0  0  0  0  0
    3.9309   -5.6276   -1.9104 H   0  0  0  0  0  0  0  0  0  0  0  0
    3.4347   -4.8271   -3.4343 H   0  0  0  0  0  0  0  0  0  0  0  0
  1  2  1  0
  1 25  1  0
  1 26  1  0
  1 27  1  0
  2  3  1  0
  2 28  1  0
  2 29  1  0
  3  4  1  0
  3  5  1  0
  3 30  1  1
  4 31  1  0
  4 32  1  0
  4 33  1  0
  5  6  2  0
  5  7  1  0
  7  8  1  0
  7 11  1  0
  8  9  1  0
  8 34  1  0
  8 35  1  0
  9 10  1  0
 10 11  1  0
 10 36  1  0
 10 37  1  0
 11 12  1  0
 11 38  1  1
 12 13  2  0
 12 14  1  0
 14 15  1  0
 14 24  1  0
 15 16  1  0
 15 39  1  0
 15 40  1  0
 16 17  1  0
 16 41  1  0
 16 42  1  0
 17 18  1  0
 17 23  1  0
 18 19  2  0
 18 20  1  0
 20 21  1  0
 20 43  1  0
 21 22  2  0
 21 23  1  0
 23 24  1  0
 23 44  1  6
 24 45  1  0
 24 46  1  0
M  END

