
     RDKit          3D

 34 35  0  0  0  0  0  0  0  0999 V2000
    0.7774    0.1194    0.3093 C   0  0  0  0  0  0  0  0  0  0  0  0
    2.2993    0.0580    0.3788 C   0  0  0  0  0  0  0  0  0  0  0  0
    2.8479   -1.3652    0.3219 C   0  0  0  0  0  0  0  0  0  0  0  0
    2.0905   -2.3158    0.2326 O   0  0  0  0  0  0  0  0  0  0  0  0
    4.3317   -1.5647    0.3786 C   0  0  0  0  0  0  0  0  0  0  0  0
    5.2645   -0.4903    0.4850 C   0  0  0  0  0  0  0  0  0  0  0  0
    6.6198   -0.7284    0.5335 C   0  0  0  0  0  0  0  0  0  0  0  0
    7.1408   -2.0556    0.4789 C   0  0  0  0  0  0  0  0  0  0  0  0
    8.5290   -2.3256    0.5271 C   0  0  0  0  0  0  0  0  0  0  0  0
    9.0281   -3.6343    0.4718 C   0  0  0  0  0  0  0  0  0  0  0  0
   10.3819   -3.9022    0.5161 N   0  0  0  0  0  0  0  0  0  0  0  0
   11.3241   -2.8088    0.6348 C   0  0  0  0  0  0  0  0  0  0  0  0
   10.8688   -5.2676    0.4794 C   0  0  0  0  0  0  0  0  0  0  0  0
    8.0779   -4.7083    0.3660 C   0  0  0  0  0  0  0  0  0  0  0  0
    6.7274   -4.4626    0.3182 C   0  0  0  0  0  0  0  0  0  0  0  0
    6.2050   -3.1396    0.3718 C   0  0  0  0  0  0  0  0  0  0  0  0
    4.8201   -2.8644    0.3245 C   0  0  0  0  0  0  0  0  0  0  0  0
    0.4247    1.1613    0.3550 H   0  0  0  0  0  0  0  0  0  0  0  0
    0.3217   -0.4397    1.1400 H   0  0  0  0  0  0  0  0  0  0  0  0
    0.4064   -0.3334   -0.6222 H   0  0  0  0  0  0  0  0  0  0  0  0
    2.6713    0.5334    1.3045 H   0  0  0  0  0  0  0  0  0  0  0  0
    2.7556    0.6369   -0.4444 H   0  0  0  0  0  0  0  0  0  0  0  0
    4.9086    0.5406    0.5296 H   0  0  0  0  0  0  0  0  0  0  0  0
    7.3188    0.1087    0.6152 H   0  0  0  0  0  0  0  0  0  0  0  0
    9.2056   -1.4757    0.6094 H   0  0  0  0  0  0  0  0  0  0  0  0
   11.1744   -2.2280    1.5643 H   0  0  0  0  0  0  0  0  0  0  0  0
   11.2459   -2.1021   -0.2121 H   0  0  0  0  0  0  0  0  0  0  0  0
   12.3472   -3.2053    0.6469 H   0  0  0  0  0  0  0  0  0  0  0  0
   10.5751   -5.7930   -0.4476 H   0  0  0  0  0  0  0  0  0  0  0  0
   10.5057   -5.8684    1.3337 H   0  0  0  0  0  0  0  0  0  0  0  0
   11.9654   -5.2612    0.5212 H   0  0  0  0  0  0  0  0  0  0  0  0
    8.4247   -5.7399    0.3218 H   0  0  0  0  0  0  0  0  0  0  0  0
    6.0294   -5.3004    0.2373 H   0  0  0  0  0  0  0  0  0  0  0  0
    4.1002   -3.6824    0.2432 H   0  0  0  0  0  0  0  0  0  0  0  0
  1  2  1  0
  1 18  1  0
  1 19  1  0
  1 20  1  0
  2  3  1  0
  2 21  1  0
  2 22  1  0
  3  4  2  0
  3  5  1  0
  5  6  2  0
  5 17  1  0
  6  7  1  0
  6 23  1  0
  7  8  2  0
  7 24  1  0
  8  9  1  0
  8 16  1  0
  9 10  2  0
  9 25  1  0
 10 11  1  0
 10 14  1  0
 11 12  1  0
 11 13  1  0
 12 26  1  0
 12 27  1  0
 12 28  1  0
 13 29  1  0
 13 30  1  0
 13 31  1  0
 14 15  2  0
 14 32  1  0
 15 16  1  0
 15 33  1  0
 16 17  2  0
 17 34  1  0
M  END

