
     RDKit          3D

159174  0  0  0  0  0  0  0  0999 V2000
    5.5064    4.3653  -10.4321 C   0  0  0  0  0  0  0  0  0  0  0  0
    6.1091    5.0564   -9.3764 C   0  0  0  0  0  0  0  0  0  0  0  0
    6.4377    4.3892   -8.1947 C   0  0  0  0  0  0  0  0  0  0  0  0
    6.1742    3.0149   -8.0420 C   0  0  0  0  0  0  0  0  0  0  0  0
    6.5511    2.2853   -6.7918 C   0  0  0  0  0  0  0  0  0  0  0  0
    6.2226    2.7429   -5.5425 C   0  0  0  0  0  0  0  0  0  0  0  0
    6.8133    2.1662   -4.2941 C   0  0  0  0  0  0  0  0  0  0  0  0
    8.2045    2.0127   -4.1468 C   0  0  0  0  0  0  0  0  0  0  0  0
    8.7494    1.5028   -2.9665 C   0  0  0  0  0  0  0  0  0  0  0  0
    7.9153    1.1316   -1.9075 C   0  0  0  0  0  0  0  0  0  0  0  0
    6.5312    1.2869   -2.0348 C   0  0  0  0  0  0  0  0  0  0  0  0
    5.9879    1.8086   -3.2105 C   0  0  0  0  0  0  0  0  0  0  0  0
    5.2530    3.8558   -5.3192 C   0  0  0  0  0  0  0  0  0  0  0  0
    3.9990    3.8887   -5.9604 C   0  0  0  0  0  0  0  0  0  0  0  0
    3.0902    4.9149   -5.7242 C   0  0  0  0  0  0  0  0  0  0  0  0
    3.3872    5.9653   -4.8299 C   0  0  0  0  0  0  0  0  0  0  0  0
    2.4207    7.0394   -4.5864 C   0  0  0  0  0  0  0  0  0  0  0  0
    1.0706    7.0785   -4.8915 C   0  0  0  0  0  0  0  0  0  0  0  0
    0.4283    8.2815   -4.5131 C   0  0  0  0  0  0  0  0  0  0  0  0
    1.2754    9.1986   -3.9081 C   0  0  0  0  0  0  0  0  0  0  0  0
    0.9864   10.5287   -3.3895 C   0  0  0  0  0  0  0  0  0  0  0  0
    1.9577   11.3296   -2.7973 C   0  0  0  0  0  0  0  0  0  0  0  0
    1.7173   12.6282   -2.2864 C   0  0  0  0  0  0  0  0  0  0  0  0
    0.4705   13.2406   -2.3084 C   0  0  0  0  0  0  0  0  0  0  0  0
    0.2431   14.5849   -1.7748 C   0  0  0  0  0  0  0  0  0  0  0  0
   -0.9001   15.6626   -2.5483 S   0  0  0  0  0  0  0  0  0  0  0  0
   -0.4465   17.0064   -1.5373 C   0  0  0  0  0  0  0  0  0  0  0  0
   -1.0841   18.3208   -1.6756 C   0  0  0  0  0  0  0  0  0  0  0  0
   -1.0083   19.2755   -0.6400 C   0  0  0  0  0  0  0  0  0  0  0  0
   -1.5920   20.5315   -0.7715 C   0  0  0  0  0  0  0  0  0  0  0  0
   -2.2931   20.8967   -1.9374 C   0  0  0  0  0  0  0  0  0  0  0  0
   -2.9550   22.2281   -2.0722 C   0  0  0  0  0  0  0  0  0  0  0  0
   -2.3237   23.4038   -1.7606 C   0  0  0  0  0  0  0  0  0  0  0  0
   -3.0518   24.7056   -1.6503 C   0  0  0  0  0  0  0  0  0  0  0  0
   -4.2230   24.8271   -0.8789 C   0  0  0  0  0  0  0  0  0  0  0  0
   -4.8782   26.0540   -0.7563 C   0  0  0  0  0  0  0  0  0  0  0  0
   -4.3796   27.1877   -1.4054 C   0  0  0  0  0  0  0  0  0  0  0  0
   -3.2115   27.0859   -2.1678 C   0  0  0  0  0  0  0  0  0  0  0  0
   -2.5495   25.8616   -2.2791 C   0  0  0  0  0  0  0  0  0  0  0  0
   -0.8516   23.4858   -1.5085 C   0  0  0  0  0  0  0  0  0  0  0  0
    0.0768   22.9257   -2.4062 C   0  0  0  0  0  0  0  0  0  0  0  0
    1.4503   23.0331   -2.1789 C   0  0  0  0  0  0  0  0  0  0  0  0
    1.9275   23.7005   -1.0466 C   0  0  0  0  0  0  0  0  0  0  0  0
    1.0183   24.2717   -0.1504 C   0  0  0  0  0  0  0  0  0  0  0  0
   -0.3548   24.1751   -0.3851 C   0  0  0  0  0  0  0  0  0  0  0  0
   -4.3630   22.1808   -2.5774 C   0  0  0  0  0  0  0  0  0  0  0  0
   -4.7814   22.9857   -3.6534 C   0  0  0  0  0  0  0  0  0  0  0  0
   -6.0887   22.9127   -4.1386 C   0  0  0  0  0  0  0  0  0  0  0  0
   -7.0089   22.0355   -3.5566 C   0  0  0  0  0  0  0  0  0  0  0  0
   -6.6060   21.2219   -2.4927 C   0  0  0  0  0  0  0  0  0  0  0  0
   -5.2950   21.2863   -2.0164 C   0  0  0  0  0  0  0  0  0  0  0  0
   -2.3955   19.9323   -2.9588 C   0  0  0  0  0  0  0  0  0  0  0  0
   -1.7943   18.6825   -2.8385 C   0  0  0  0  0  0  0  0  0  0  0  0
    0.5173   16.6110   -0.6294 C   0  0  0  0  0  0  0  0  0  0  0  0
    0.9122   15.2464   -0.7396 C   0  0  0  0  0  0  0  0  0  0  0  0
    1.8848   14.6456    0.2089 C   0  0  0  0  0  0  0  0  0  0  0  0
    1.5799   13.4774    0.9327 C   0  0  0  0  0  0  0  0  0  0  0  0
    2.4794   12.9505    1.8565 C   0  0  0  0  0  0  0  0  0  0  0  0
    3.7335   13.5518    2.0816 C   0  0  0  0  0  0  0  0  0  0  0  0
    4.6859   12.9868    3.0857 C   0  0  0  0  0  0  0  0  0  0  0  0
    6.0087   12.7729    2.8033 C   0  0  0  0  0  0  0  0  0  0  0  0
    7.0207   12.4553    3.8578 C   0  0  0  0  0  0  0  0  0  0  0  0
    7.9331   11.3973    3.6789 C   0  0  0  0  0  0  0  0  0  0  0  0
    8.8934   11.1043    4.6492 C   0  0  0  0  0  0  0  0  0  0  0  0
    8.9784   11.8776    5.8114 C   0  0  0  0  0  0  0  0  0  0  0  0
    8.0944   12.9457    5.9931 C   0  0  0  0  0  0  0  0  0  0  0  0
    7.1259   13.2301    5.0284 C   0  0  0  0  0  0  0  0  0  0  0  0
    6.5519   12.8366    1.4106 C   0  0  0  0  0  0  0  0  0  0  0  0
    7.7112   13.5833    1.1255 C   0  0  0  0  0  0  0  0  0  0  0  0
    8.2351   13.6317   -0.1680 C   0  0  0  0  0  0  0  0  0  0  0  0
    7.6255   12.9140   -1.2020 C   0  0  0  0  0  0  0  0  0  0  0  0
    6.4880   12.1477   -0.9293 C   0  0  0  0  0  0  0  0  0  0  0  0
    5.9558   12.1118    0.3615 C   0  0  0  0  0  0  0  0  0  0  0  0
    4.0816   12.6747    4.4182 C   0  0  0  0  0  0  0  0  0  0  0  0
    3.2521   13.6114    5.0649 C   0  0  0  0  0  0  0  0  0  0  0  0
    2.6683   13.3225    6.2999 C   0  0  0  0  0  0  0  0  0  0  0  0
    2.8826   12.0807    6.9064 C   0  0  0  0  0  0  0  0  0  0  0  0
    3.6854   11.1318    6.2659 C   0  0  0  0  0  0  0  0  0  0  0  0
    4.2793   11.4260    5.0370 C   0  0  0  0  0  0  0  0  0  0  0  0
    4.0288   14.7284    1.3704 C   0  0  0  0  0  0  0  0  0  0  0  0
    3.1212   15.2678    0.4582 C   0  0  0  0  0  0  0  0  0  0  0  0
   -0.5768   12.4634   -2.9238 C   0  0  0  0  0  0  0  0  0  0  0  0
   -1.8423   12.8572   -3.0714 N   0  0  0  0  0  0  0  0  0  0  0  0
   -2.6503   11.6465   -3.8210 S   0  0  0  0  0  0  0  0  0  0  0  0
   -1.4233   10.5716   -3.9852 N   0  0  0  0  0  0  0  0  0  0  0  0
   -0.3290   11.1249   -3.4585 C   0  0  0  0  0  0  0  0  0  0  0  0
    2.8988    8.5358   -3.8204 S   0  0  0  0  0  0  0  0  0  0  0  0
    4.6381    5.9264   -4.1798 C   0  0  0  0  0  0  0  0  0  0  0  0
    5.5417    4.8934   -4.4116 C   0  0  0  0  0  0  0  0  0  0  0  0
    7.3186    1.0205   -7.0110 C   0  0  0  0  0  0  0  0  0  0  0  0
    6.9434   -0.1826   -6.3839 C   0  0  0  0  0  0  0  0  0  0  0  0
    7.6472   -1.3653   -6.6197 C   0  0  0  0  0  0  0  0  0  0  0  0
    8.7453   -1.3718   -7.4854 C   0  0  0  0  0  0  0  0  0  0  0  0
    9.1250   -0.1868   -8.1237 C   0  0  0  0  0  0  0  0  0  0  0  0
    8.4127    0.9926   -7.8978 C   0  0  0  0  0  0  0  0  0  0  0  0
    5.5886    2.3278   -9.1231 C   0  0  0  0  0  0  0  0  0  0  0  0
    5.2479    2.9971  -10.3001 C   0  0  0  0  0  0  0  0  0  0  0  0
    5.2465    4.8885  -11.3558 H   0  0  0  0  0  0  0  0  0  0  0  0
    6.3280    6.1230   -9.4738 H   0  0  0  0  0  0  0  0  0  0  0  0
    6.9112    4.9363   -7.3771 H   0  0  0  0  0  0  0  0  0  0  0  0
    8.8637    2.3021   -4.9675 H   0  0  0  0  0  0  0  0  0  0  0  0
    9.8335    1.3976   -2.8730 H   0  0  0  0  0  0  0  0  0  0  0  0
    8.3419    0.7300   -0.9848 H   0  0  0  0  0  0  0  0  0  0  0  0
    5.8699    1.0039   -1.2115 H   0  0  0  0  0  0  0  0  0  0  0  0
    4.9060    1.9356   -3.2970 H   0  0  0  0  0  0  0  0  0  0  0  0
    3.7340    3.0925   -6.6582 H   0  0  0  0  0  0  0  0  0  0  0  0
    2.1360    4.9074   -6.2544 H   0  0  0  0  0  0  0  0  0  0  0  0
    0.5444    6.2471   -5.3616 H   0  0  0  0  0  0  0  0  0  0  0  0
   -0.6284    8.4888   -4.6667 H   0  0  0  0  0  0  0  0  0  0  0  0
    2.9798   10.9505   -2.7235 H   0  0  0  0  0  0  0  0  0  0  0  0
    2.5652   13.1696   -1.8668 H   0  0  0  0  0  0  0  0  0  0  0  0
   -0.5017   19.0235    0.2937 H   0  0  0  0  0  0  0  0  0  0  0  0
   -1.5194   21.2423    0.0535 H   0  0  0  0  0  0  0  0  0  0  0  0
   -4.6183   23.9484   -0.3657 H   0  0  0  0  0  0  0  0  0  0  0  0
   -5.7830   26.1249   -0.1470 H   0  0  0  0  0  0  0  0  0  0  0  0
   -4.8944   28.1474   -1.3116 H   0  0  0  0  0  0  0  0  0  0  0  0
   -2.8103   27.9667   -2.6760 H   0  0  0  0  0  0  0  0  0  0  0  0
   -1.6317   25.7943   -2.8681 H   0  0  0  0  0  0  0  0  0  0  0  0
   -0.2865   22.4057   -3.2948 H   0  0  0  0  0  0  0  0  0  0  0  0
    2.1522   22.5949   -2.8933 H   0  0  0  0  0  0  0  0  0  0  0  0
    3.0027   23.7822   -0.8675 H   0  0  0  0  0  0  0  0  0  0  0  0
    1.3805   24.8001    0.7355 H   0  0  0  0  0  0  0  0  0  0  0  0
   -1.0573   24.6338    0.3149 H   0  0  0  0  0  0  0  0  0  0  0  0
   -4.0691   23.6717   -4.1158 H   0  0  0  0  0  0  0  0  0  0  0  0
   -6.3893   23.5438   -4.9791 H   0  0  0  0  0  0  0  0  0  0  0  0
   -8.0329   21.9805   -3.9348 H   0  0  0  0  0  0  0  0  0  0  0  0
   -7.3159   20.5291   -2.0331 H   0  0  0  0  0  0  0  0  0  0  0  0
   -4.9866   20.6394   -1.1915 H   0  0  0  0  0  0  0  0  0  0  0  0
   -2.9446   20.1744   -3.8715 H   0  0  0  0  0  0  0  0  0  0  0  0
   -1.8691   17.9757   -3.6688 H   0  0  0  0  0  0  0  0  0  0  0  0
    0.9353   17.2767    0.1261 H   0  0  0  0  0  0  0  0  0  0  0  0
    0.6165   12.9870    0.7763 H   0  0  0  0  0  0  0  0  0  0  0  0
    2.2082   12.0520    2.4160 H   0  0  0  0  0  0  0  0  0  0  0  0
    7.8812   10.7939    2.7694 H   0  0  0  0  0  0  0  0  0  0  0  0
    9.5823   10.2697    4.4947 H   0  0  0  0  0  0  0  0  0  0  0  0
    9.7347   11.6535    6.5681 H   0  0  0  0  0  0  0  0  0  0  0  0
    8.1605   13.5650    6.8915 H   0  0  0  0  0  0  0  0  0  0  0  0
    6.4423   14.0680    5.1776 H   0  0  0  0  0  0  0  0  0  0  0  0
    8.2016   14.1374    1.9296 H   0  0  0  0  0  0  0  0  0  0  0  0
    9.1281   14.2296   -0.3687 H   0  0  0  0  0  0  0  0  0  0  0  0
    8.0400   12.9445   -2.2129 H   0  0  0  0  0  0  0  0  0  0  0  0
    6.0150   11.5677   -1.7264 H   0  0  0  0  0  0  0  0  0  0  0  0
    5.0699   11.5076    0.5669 H   0  0  0  0  0  0  0  0  0  0  0  0
    3.0704   14.5804    4.5938 H   0  0  0  0  0  0  0  0  0  0  0  0
    2.0384   14.0700    6.7895 H   0  0  0  0  0  0  0  0  0  0  0  0
    2.4198   11.8509    7.8696 H   0  0  0  0  0  0  0  0  0  0  0  0
    3.8486   10.1529    6.7244 H   0  0  0  0  0  0  0  0  0  0  0  0
    4.9020   10.6776    4.5431 H   0  0  0  0  0  0  0  0  0  0  0  0
    4.9839   15.2300    1.5378 H   0  0  0  0  0  0  0  0  0  0  0  0
    3.3809   16.1820   -0.0815 H   0  0  0  0  0  0  0  0  0  0  0  0
    4.9016    6.7101   -3.4651 H   0  0  0  0  0  0  0  0  0  0  0  0
    6.4957    4.8902   -3.8795 H   0  0  0  0  0  0  0  0  0  0  0  0
    6.0856   -0.1885   -5.7087 H   0  0  0  0  0  0  0  0  0  0  0  0
    7.3333   -2.2886   -6.1257 H   0  0  0  0  0  0  0  0  0  0  0  0
    9.2978   -2.2971   -7.6676 H   0  0  0  0  0  0  0  0  0  0  0  0
    9.9793   -0.1812   -8.8060 H   0  0  0  0  0  0  0  0  0  0  0  0
    8.7103    1.9111   -8.4093 H   0  0  0  0  0  0  0  0  0  0  0  0
    5.3926    1.2566   -9.0330 H   0  0  0  0  0  0  0  0  0  0  0  0
    4.7816    2.4459  -11.1211 H   0  0  0  0  0  0  0  0  0  0  0  0
  1  2  2  0
  1 97  1  0
  1 98  1  0
  2  3  1  0
  2 99  1  0
  3  4  2  0
  3100  1  0
  4  5  1  0
  4 96  1  0
  5  6  2  0
  5 90  1  0
  6  7  1  0
  6 13  1  0
  7  8  2  0
  7 12  1  0
  8  9  1  0
  8101  1  0
  9 10  2  0
  9102  1  0
 10 11  1  0
 10103  1  0
 11 12  2  0
 11104  1  0
 12105  1  0
 13 14  2  0
 13 89  1  0
 14 15  1  0
 14106  1  0
 15 16  2  0
 15107  1  0
 16 17  1  0
 16 88  1  0
 17 18  2  0
 17 87  1  0
 18 19  1  0
 18108  1  0
 19 20  2  0
 19109  1  0
 20 21  1  0
 20 87  1  0
 21 22  2  0
 21 86  1  0
 22 23  1  0
 22110  1  0
 23 24  2  0
 23111  1  0
 24 25  1  0
 24 82  1  0
 25 26  1  0
 25 55  2  0
 26 27  1  0
 27 28  1  0
 27 54  2  0
 28 29  2  0
 28 53  1  0
 29 30  1  0
 29112  1  0
 30 31  2  0
 30113  1  0
 31 32  1  0
 31 52  1  0
 32 33  2  0
 32 46  1  0
 33 34  1  0
 33 40  1  0
 34 35  2  0
 34 39  1  0
 35 36  1  0
 35114  1  0
 36 37  2  0
 36115  1  0
 37 38  1  0
 37116  1  0
 38 39  2  0
 38117  1  0
 39118  1  0
 40 41  2  0
 40 45  1  0
 41 42  1  0
 41119  1  0
 42 43  2  0
 42120  1  0
 43 44  1  0
 43121  1  0
 44 45  2  0
 44122  1  0
 45123  1  0
 46 47  2  0
 46 51  1  0
 47 48  1  0
 47124  1  0
 48 49  2  0
 48125  1  0
 49 50  1  0
 49126  1  0
 50 51  2  0
 50127  1  0
 51128  1  0
 52 53  2  0
 52129  1  0
 53130  1  0
 54 55  1  0
 54131  1  0
 55 56  1  0
 56 57  2  0
 56 81  1  0
 57 58  1  0
 57132  1  0
 58 59  2  0
 58133  1  0
 59 60  1  0
 59 80  1  0
 60 61  2  0
 60 74  1  0
 61 62  1  0
 61 68  1  0
 62 63  2  0
 62 67  1  0
 63 64  1  0
 63134  1  0
 64 65  2  0
 64135  1  0
 65 66  1  0
 65136  1  0
 66 67  2  0
 66137  1  0
 67138  1  0
 68 69  2  0
 68 73  1  0
 69 70  1  0
 69139  1  0
 70 71  2  0
 70140  1  0
 71 72  1  0
 71141  1  0
 72 73  2  0
 72142  1  0
 73143  1  0
 74 75  2  0
 74 79  1  0
 75 76  1  0
 75144  1  0
 76 77  2  0
 76145  1  0
 77 78  1  0
 77146  1  0
 78 79  2  0
 78147  1  0
 79148  1  0
 80 81  2  0
 80149  1  0
 81150  1  0
 82 83  2  0
 82 86  1  0
 83 84  1  0
 84 85  1  0
 85 86  2  0
 88 89  2  0
 88151  1  0
 89152  1  0
 90 91  2  0
 90 95  1  0
 91 92  1  0
 91153  1  0
 92 93  2  0
 92154  1  0
 93 94  1  0
 93155  1  0
 94 95  2  0
 94156  1  0
 95157  1  0
 96 97  2  0
 96158  1  0
 97159  1  0
M  END

