
     RDKit          3D

 31 31  0  0  0  0  0  0  0  0999 V2000
    0.9645    0.5328    0.7297 C   0  0  0  0  0  0  0  0  0  0  0  0
    2.1460    0.0148   -0.0470 C   0  0  0  0  0  0  0  0  0  0  0  0
    2.6546   -1.1578    0.1088 N   0  0  0  0  0  0  0  0  0  0  0  0
    2.0293   -1.9125    1.0902 O   0  0  0  0  0  0  0  0  0  0  0  0
    2.4852   -3.2608    1.0791 C   0  0  0  0  0  0  0  0  0  0  0  0
    2.5043   -3.8154    2.5044 C   0  0  0  0  0  0  0  0  0  0  0  0
    2.6703   -4.9814    2.7274 O   0  0  0  0  0  0  0  0  0  0  0  0
    2.3541   -2.8967    3.4676 O   0  0  0  0  0  0  0  0  0  0  0  0
    2.8132    0.8765   -1.0633 C   0  0  0  0  0  0  0  0  0  0  0  0
    2.5098    2.2474   -1.1514 C   0  0  0  0  0  0  0  0  0  0  0  0
    3.1389    3.0626   -2.0950 C   0  0  0  0  0  0  0  0  0  0  0  0
    4.0812    2.5020   -2.9564 C   0  0  0  0  0  0  0  0  0  0  0  0
    4.8780    3.5460   -4.1950 S   0  0  1  0  0  0  0  0  0  0  0  0
    6.3877    4.1234   -3.3859 C   0  0  0  0  0  0  0  0  0  0  0  0
    5.2864    2.6830   -5.3114 O   0  0  0  0  0  0  0  0  0  0  0  0
    4.0220    4.7214   -4.4062 O   0  0  0  0  0  0  0  0  0  0  0  0
    4.3879    1.1375   -2.9044 C   0  0  0  0  0  0  0  0  0  0  0  0
    3.7608    0.3345   -1.9570 C   0  0  0  0  0  0  0  0  0  0  0  0
    0.4199   -0.2929    1.2010 H   0  0  0  0  0  0  0  0  0  0  0  0
    0.2777    1.0858    0.0731 H   0  0  0  0  0  0  0  0  0  0  0  0
    1.2917    1.2263    1.5233 H   0  0  0  0  0  0  0  0  0  0  0  0
    3.5067   -3.3061    0.6685 H   0  0  0  0  0  0  0  0  0  0  0  0
    1.8332   -3.8970    0.4585 H   0  0  0  0  0  0  0  0  0  0  0  0
    2.2118   -2.0347    3.0355 H   0  0  0  0  0  0  0  0  0  0  0  0
    1.7760    2.6957   -0.4802 H   0  0  0  0  0  0  0  0  0  0  0  0
    2.8912    4.1225   -2.1790 H   0  0  0  0  0  0  0  0  0  0  0  0
    7.0184    3.2614   -3.1333 H   0  0  0  0  0  0  0  0  0  0  0  0
    6.1223    4.7087   -2.4961 H   0  0  0  0  0  0  0  0  0  0  0  0
    6.8833    4.7591   -4.1335 H   0  0  0  0  0  0  0  0  0  0  0  0
    5.0975    0.7152   -3.6188 H   0  0  0  0  0  0  0  0  0  0  0  0
    3.9872   -0.7306   -1.9033 H   0  0  0  0  0  0  0  0  0  0  0  0
  1  2  1  0
  1 19  1  0
  1 20  1  0
  1 21  1  0
  2  3  2  0
  2  9  1  0
  3  4  1  0
  4  5  1  0
  5  6  1  0
  5 22  1  0
  5 23  1  0
  6  7  2  0
  6  8  1  0
  8 24  1  0
  9 10  2  0
  9 18  1  0
 10 11  1  0
 10 25  1  0
 11 12  2  0
 11 26  1  0
 12 13  1  0
 12 17  1  0
 13 14  1  1
 13 15  2  0
 13 16  2  0
 14 27  1  0
 14 28  1  0
 14 29  1  0
 17 18  2  0
 17 30  1  0
 18 31  1  0
M  END

