
     RDKit          3D

 39 40  0  0  0  0  0  0  0  0999 V2000
    1.6019   -0.1413    1.7494 C   0  0  0  0  0  0  0  0  0  0  0  0
    2.3089    0.1615    0.4185 C   0  0  1  0  0  0  0  0  0  0  0  0
    2.4978    1.5941    0.2810 N   0  0  0  0  0  0  0  0  0  0  0  0
    2.2920    2.2708   -0.8719 C   0  0  0  0  0  0  0  0  0  0  0  0
    1.8730    1.7794   -1.9081 O   0  0  0  0  0  0  0  0  0  0  0  0
    2.6995    3.7643   -0.6843 C   0  0  0  0  0  0  0  0  0  0  0  0
    3.2756    4.0680    0.3544 O   0  0  0  0  0  0  0  0  0  0  0  0
    2.4317    4.6540   -1.6888 N   0  0  0  0  0  0  0  0  0  0  0  0
    1.6918    4.3209   -2.9173 C   0  0  0  0  0  0  0  0  0  0  0  0
    2.9543    5.9887   -1.5921 C   0  0  0  0  0  0  0  0  0  0  0  0
    3.6346    6.5373   -2.6899 C   0  0  0  0  0  0  0  0  0  0  0  0
    4.1228    7.8451   -2.6360 C   0  0  0  0  0  0  0  0  0  0  0  0
    3.9431    8.6163   -1.4852 C   0  0  0  0  0  0  0  0  0  0  0  0
    3.2683    8.0689   -0.3897 C   0  0  0  0  0  0  0  0  0  0  0  0
    2.7728    6.7646   -0.4374 C   0  0  0  0  0  0  0  0  0  0  0  0
    3.6094   -0.6331    0.2786 C   0  0  0  0  0  0  0  0  0  0  0  0
    3.5469   -2.0033   -0.0222 C   0  0  0  0  0  0  0  0  0  0  0  0
    4.7092   -2.7711   -0.1171 C   0  0  0  0  0  0  0  0  0  0  0  0
    5.9600   -2.1785    0.0860 C   0  0  0  0  0  0  0  0  0  0  0  0
    6.0345   -0.8147    0.3782 C   0  0  0  0  0  0  0  0  0  0  0  0
    4.8679   -0.0479    0.4722 C   0  0  0  0  0  0  0  0  0  0  0  0
    0.6347    0.3822    1.8021 H   0  0  0  0  0  0  0  0  0  0  0  0
    2.2221    0.1806    2.6024 H   0  0  0  0  0  0  0  0  0  0  0  0
    1.4230   -1.2208    1.8592 H   0  0  0  0  0  0  0  0  0  0  0  0
    1.6508   -0.1312   -0.4147 H   0  0  0  0  0  0  0  0  0  0  0  0
    2.8907    2.1480    1.0391 H   0  0  0  0  0  0  0  0  0  0  0  0
    0.8369    3.6770   -2.6909 H   0  0  0  0  0  0  0  0  0  0  0  0
    2.3176    3.7898   -3.6501 H   0  0  0  0  0  0  0  0  0  0  0  0
    1.3337    5.2606   -3.3564 H   0  0  0  0  0  0  0  0  0  0  0  0
    3.7924    5.9361   -3.5875 H   0  0  0  0  0  0  0  0  0  0  0  0
    4.6528    8.2577   -3.4982 H   0  0  0  0  0  0  0  0  0  0  0  0
    4.3273    9.6384   -1.4413 H   0  0  0  0  0  0  0  0  0  0  0  0
    3.1201    8.6643    0.5149 H   0  0  0  0  0  0  0  0  0  0  0  0
    2.2527    6.3438    0.4216 H   0  0  0  0  0  0  0  0  0  0  0  0
    2.5741   -2.4745   -0.1933 H   0  0  0  0  0  0  0  0  0  0  0  0
    4.6391   -3.8351   -0.3582 H   0  0  0  0  0  0  0  0  0  0  0  0
    6.8716   -2.7765    0.0092 H   0  0  0  0  0  0  0  0  0  0  0  0
    7.0070   -0.3388    0.5297 H   0  0  0  0  0  0  0  0  0  0  0  0
    4.9447    1.0216    0.6806 H   0  0  0  0  0  0  0  0  0  0  0  0
  1  2  1  0
  1 22  1  0
  1 23  1  0
  1 24  1  0
  2  3  1  0
  2 16  1  0
  2 25  1  6
  3  4  1  0
  3 26  1  0
  4  5  2  0
  4  6  1  0
  6  7  2  0
  6  8  1  0
  8  9  1  0
  8 10  1  0
  9 27  1  0
  9 28  1  0
  9 29  1  0
 10 11  2  0
 10 15  1  0
 11 12  1  0
 11 30  1  0
 12 13  2  0
 12 31  1  0
 13 14  1  0
 13 32  1  0
 14 15  2  0
 14 33  1  0
 15 34  1  0
 16 17  2  0
 16 21  1  0
 17 18  1  0
 17 35  1  0
 18 19  2  0
 18 36  1  0
 19 20  1  0
 19 37  1  0
 20 21  2  0
 20 38  1  0
 21 39  1  0
M  END

