
     RDKit          3D

107112  0  0  0  0  0  0  0  0999 V2000
    1.8453   -1.7629   -3.1265 C   0  0  0  0  0  0  0  0  0  0  0  0
    3.0264   -1.2970   -2.2740 C   0  0  0  0  0  0  0  0  0  0  0  0
    3.5981   -2.3909   -1.3666 C   0  0  0  0  0  0  0  0  0  0  0  0
    4.7816   -1.9324   -0.5096 C   0  0  0  0  0  0  0  0  0  0  0  0
    5.3524   -3.0260    0.3979 C   0  0  0  0  0  0  0  0  0  0  0  0
    6.5367   -2.5661    1.2533 C   0  0  0  0  0  0  0  0  0  0  0  0
    7.1050   -3.6622    2.1612 C   0  0  0  0  0  0  0  0  0  0  0  0
    8.2887   -3.1813    3.0048 C   0  0  0  0  0  0  0  0  0  0  0  0
    8.9316   -4.2244    3.9640 C   0  0  2  0  0  0  0  0  0  0  0  0
   10.1083   -3.5331    4.7124 C   0  0  0  0  0  0  0  0  0  0  0  0
   10.8843   -4.3925    5.7140 C   0  0  0  0  0  0  0  0  0  0  0  0
   12.0189   -3.6266    6.4030 C   0  0  0  0  0  0  0  0  0  0  0  0
   12.8056   -4.4676    7.4128 C   0  0  0  0  0  0  0  0  0  0  0  0
   13.9407   -3.7060    8.1036 C   0  0  0  0  0  0  0  0  0  0  0  0
   14.7259   -4.5453    9.1156 C   0  0  0  0  0  0  0  0  0  0  0  0
   15.8616   -3.7844    9.8070 C   0  0  0  0  0  0  0  0  0  0  0  0
   16.6400   -4.6293   10.8166 C   0  0  0  0  0  0  0  0  0  0  0  0
    9.3865   -5.4813    3.2215 C   0  0  0  0  0  0  0  0  0  0  0  0
   10.3215   -5.5937    2.2016 C   0  0  0  0  0  0  0  0  0  0  0  0
   10.6043   -6.8644    1.6425 C   0  0  0  0  0  0  0  0  0  0  0  0
   11.5617   -6.9959    0.5950 C   0  0  0  0  0  0  0  0  0  0  0  0
   12.3827   -7.1081   -0.3024 C   0  0  0  0  0  0  0  0  0  0  0  0
   13.3405   -7.2394   -1.3487 C   0  0  0  0  0  0  0  0  0  0  0  0
   14.0058   -6.1103   -1.8770 C   0  0  0  0  0  0  0  0  0  0  0  0
   14.9362   -6.2368   -2.9014 C   0  0  0  0  0  0  0  0  0  0  0  0
   15.2542   -7.5019   -3.4377 C   0  0  0  0  0  0  0  0  0  0  0  0
   16.2037   -7.6321   -4.4738 N   0  0  0  0  0  0  0  0  0  0  0  0
   17.3491   -6.7888   -4.5110 C   0  0  0  0  0  0  0  0  0  0  0  0
   18.0957   -6.5415   -3.3448 C   0  0  0  0  0  0  0  0  0  0  0  0
   19.2168   -5.7112   -3.3883 C   0  0  0  0  0  0  0  0  0  0  0  0
   19.6237   -5.1287   -4.5931 C   0  0  0  0  0  0  0  0  0  0  0  0
   18.8901   -5.3806   -5.7568 C   0  0  0  0  0  0  0  0  0  0  0  0
   17.7580   -6.1963   -5.7191 C   0  0  0  0  0  0  0  0  0  0  0  0
   16.0262   -8.6076   -5.4945 C   0  0  0  0  0  0  0  0  0  0  0  0
   14.7728   -8.7839   -6.1077 C   0  0  0  0  0  0  0  0  0  0  0  0
   14.6056   -9.7441   -7.1069 C   0  0  0  0  0  0  0  0  0  0  0  0
   15.6841  -10.5309   -7.5242 C   0  0  0  0  0  0  0  0  0  0  0  0
   16.9345  -10.3514   -6.9240 C   0  0  0  0  0  0  0  0  0  0  0  0
   17.1065   -9.4050   -5.9125 C   0  0  0  0  0  0  0  0  0  0  0  0
   14.5977   -8.6333   -2.9103 C   0  0  0  0  0  0  0  0  0  0  0  0
   13.6586   -8.5034   -1.8943 C   0  0  0  0  0  0  0  0  0  0  0  0
    9.9230   -8.0035    2.1383 C   0  0  0  0  0  0  0  0  0  0  0  0
    8.9851   -7.8895    3.1611 C   0  0  0  0  0  0  0  0  0  0  0  0
    8.7149   -6.6268    3.7049 C   0  0  0  0  0  0  0  0  0  0  0  0
    7.7962   -6.2143    4.7679 C   0  0  0  0  0  0  0  0  0  0  0  0
    6.9128   -6.9629    5.5563 C   0  0  0  0  0  0  0  0  0  0  0  0
    6.1414   -6.3012    6.5126 C   0  0  0  0  0  0  0  0  0  0  0  0
    6.2461   -4.9096    6.6846 C   0  0  0  0  0  0  0  0  0  0  0  0
    5.4188   -4.2268    7.7049 C   0  0  0  0  0  0  0  0  0  0  0  0
    5.4369   -3.0364    7.9281 O   0  0  0  0  0  0  0  0  0  0  0  0
    7.1375   -4.1611    5.8876 C   0  0  0  0  0  0  0  0  0  0  0  0
    7.9071   -4.8112    4.9355 C   0  0  0  0  0  0  0  0  0  0  0  0
    1.4605   -0.9517   -3.7653 H   0  0  0  0  0  0  0  0  0  0  0  0
    1.0105   -2.1146   -2.4971 H   0  0  0  0  0  0  0  0  0  0  0  0
    2.1324   -2.5984   -3.7871 H   0  0  0  0  0  0  0  0  0  0  0  0
    2.7165   -0.4365   -1.6531 H   0  0  0  0  0  0  0  0  0  0  0  0
    3.8288   -0.9160   -2.9320 H   0  0  0  0  0  0  0  0  0  0  0  0
    3.9087   -3.2527   -1.9868 H   0  0  0  0  0  0  0  0  0  0  0  0
    2.7961   -2.7725   -0.7071 H   0  0  0  0  0  0  0  0  0  0  0  0
    4.4706   -1.0704    0.1097 H   0  0  0  0  0  0  0  0  0  0  0  0
    5.5832   -1.5513   -1.1697 H   0  0  0  0  0  0  0  0  0  0  0  0
    5.6631   -3.8887   -0.2205 H   0  0  0  0  0  0  0  0  0  0  0  0
    4.5517   -3.4063    1.0593 H   0  0  0  0  0  0  0  0  0  0  0  0
    6.2260   -1.7029    1.8711 H   0  0  0  0  0  0  0  0  0  0  0  0
    7.3375   -2.1864    0.5914 H   0  0  0  0  0  0  0  0  0  0  0  0
    7.4143   -4.5217    1.5416 H   0  0  0  0  0  0  0  0  0  0  0  0
    6.3039   -4.0352    2.8227 H   0  0  0  0  0  0  0  0  0  0  0  0
    7.9741   -2.3140    3.6122 H   0  0  0  0  0  0  0  0  0  0  0  0
    9.0823   -2.8039    2.3353 H   0  0  0  0  0  0  0  0  0  0  0  0
    9.7027   -2.6463    5.2314 H   0  0  0  0  0  0  0  0  0  0  0  0
   10.8072   -3.1399    3.9526 H   0  0  0  0  0  0  0  0  0  0  0  0
   11.3028   -5.2757    5.2010 H   0  0  0  0  0  0  0  0  0  0  0  0
   10.1941   -4.7837    6.4815 H   0  0  0  0  0  0  0  0  0  0  0  0
   11.6038   -2.7381    6.9145 H   0  0  0  0  0  0  0  0  0  0  0  0
   12.7136   -3.2329    5.6375 H   0  0  0  0  0  0  0  0  0  0  0  0
   13.2201   -5.3566    6.9019 H   0  0  0  0  0  0  0  0  0  0  0  0
   12.1110   -4.8605    8.1783 H   0  0  0  0  0  0  0  0  0  0  0  0
   13.5256   -2.8160    8.6124 H   0  0  0  0  0  0  0  0  0  0  0  0
   14.6359   -3.3142    7.3376 H   0  0  0  0  0  0  0  0  0  0  0  0
   15.1412   -5.4359    8.6074 H   0  0  0  0  0  0  0  0  0  0  0  0
   14.0310   -4.9370    9.8821 H   0  0  0  0  0  0  0  0  0  0  0  0
   15.4455   -2.8945   10.3139 H   0  0  0  0  0  0  0  0  0  0  0  0
   16.5554   -3.3935    9.0403 H   0  0  0  0  0  0  0  0  0  0  0  0
   15.9813   -5.0040   11.6182 H   0  0  0  0  0  0  0  0  0  0  0  0
   17.4474   -4.0508   11.2935 H   0  0  0  0  0  0  0  0  0  0  0  0
   17.1008   -5.5076   10.3338 H   0  0  0  0  0  0  0  0  0  0  0  0
   10.8485   -4.7174    1.8174 H   0  0  0  0  0  0  0  0  0  0  0  0
   13.7711   -5.1204   -1.4801 H   0  0  0  0  0  0  0  0  0  0  0  0
   15.4244   -5.3461   -3.2999 H   0  0  0  0  0  0  0  0  0  0  0  0
   17.7918   -7.0050   -2.4042 H   0  0  0  0  0  0  0  0  0  0  0  0
   19.7856   -5.5300   -2.4725 H   0  0  0  0  0  0  0  0  0  0  0  0
   20.5057   -4.4847   -4.6248 H   0  0  0  0  0  0  0  0  0  0  0  0
   19.1935   -4.9278   -6.7044 H   0  0  0  0  0  0  0  0  0  0  0  0
   17.1821   -6.3799   -6.6281 H   0  0  0  0  0  0  0  0  0  0  0  0
   13.9306   -8.1627   -5.7966 H   0  0  0  0  0  0  0  0  0  0  0  0
   13.6245   -9.8677   -7.5730 H   0  0  0  0  0  0  0  0  0  0  0  0
   15.5513  -11.2769   -8.3113 H   0  0  0  0  0  0  0  0  0  0  0  0
   17.7850  -10.9630   -7.2366 H   0  0  0  0  0  0  0  0  0  0  0  0
   18.0819   -9.2772   -5.4390 H   0  0  0  0  0  0  0  0  0  0  0  0
   14.8341   -9.6235   -3.3030 H   0  0  0  0  0  0  0  0  0  0  0  0
   13.1660   -9.3935   -1.4973 H   0  0  0  0  0  0  0  0  0  0  0  0
   10.1453   -8.9799    1.7036 H   0  0  0  0  0  0  0  0  0  0  0  0
    8.4699   -8.7801    3.5297 H   0  0  0  0  0  0  0  0  0  0  0  0
    6.8262   -8.0446    5.4281 H   0  0  0  0  0  0  0  0  0  0  0  0
    5.4445   -6.8653    7.1400 H   0  0  0  0  0  0  0  0  0  0  0  0
    4.7431   -4.9093    8.2854 H   0  0  0  0  0  0  0  0  0  0  0  0
    7.1915   -3.0817    6.0499 H   0  0  0  0  0  0  0  0  0  0  0  0
  1  2  1  0
  1 53  1  0
  1 54  1  0
  1 55  1  0
  2  3  1  0
  2 56  1  0
  2 57  1  0
  3  4  1  0
  3 58  1  0
  3 59  1  0
  4  5  1  0
  4 60  1  0
  4 61  1  0
  5  6  1  0
  5 62  1  0
  5 63  1  0
  6  7  1  0
  6 64  1  0
  6 65  1  0
  7  8  1  0
  7 66  1  0
  7 67  1  0
  9  8  1  6
  8 68  1  0
  8 69  1  0
  9 10  1  0
  9 18  1  0
  9 52  1  0
 10 11  1  0
 10 70  1  0
 10 71  1  0
 11 12  1  0
 11 72  1  0
 11 73  1  0
 12 13  1  0
 12 74  1  0
 12 75  1  0
 13 14  1  0
 13 76  1  0
 13 77  1  0
 14 15  1  0
 14 78  1  0
 14 79  1  0
 15 16  1  0
 15 80  1  0
 15 81  1  0
 16 17  1  0
 16 82  1  0
 16 83  1  0
 17 84  1  0
 17 85  1  0
 17 86  1  0
 18 19  2  0
 18 44  1  0
 19 20  1  0
 19 87  1  0
 20 21  1  0
 20 42  2  0
 21 22  3  0
 22 23  1  0
 23 24  2  0
 23 41  1  0
 24 25  1  0
 24 88  1  0
 25 26  2  0
 25 89  1  0
 26 27  1  0
 26 40  1  0
 27 28  1  0
 27 34  1  0
 28 29  2  0
 28 33  1  0
 29 30  1  0
 29 90  1  0
 30 31  2  0
 30 91  1  0
 31 32  1  0
 31 92  1  0
 32 33  2  0
 32 93  1  0
 33 94  1  0
 34 35  2  0
 34 39  1  0
 35 36  1  0
 35 95  1  0
 36 37  2  0
 36 96  1  0
 37 38  1  0
 37 97  1  0
 38 39  2  0
 38 98  1  0
 39 99  1  0
 40 41  2  0
 40100  1  0
 41101  1  0
 42 43  1  0
 42102  1  0
 43 44  2  0
 43103  1  0
 44 45  1  0
 45 46  2  0
 45 52  1  0
 46 47  1  0
 46104  1  0
 47 48  2  0
 47105  1  0
 48 49  1  0
 48 51  1  0
 49 50  2  0
 49106  1  0
 51 52  2  0
 51107  1  0
M  END

