
     RDKit          3D

 20 20  0  0  0  0  0  0  0  0999 V2000
    0.9700   -0.0894   -0.0596 C   0  0  0  0  0  0  0  0  0  0  0  0
    2.4281   -0.0705    0.0201 N   0  0  0  0  0  0  0  0  0  0  0  0
    3.1229    1.0980    0.0844 C   0  0  0  0  0  0  0  0  0  0  0  0
    4.4157    1.1844    0.1630 N   0  0  0  0  0  0  0  0  0  0  0  0
    5.1082    0.0130    0.1769 C   0  0  0  0  0  0  0  0  0  0  0  0
    4.5303   -1.2365    0.0997 C   0  0  0  0  0  0  0  0  0  0  0  0
    5.3644   -2.4662    0.0801 C   0  0  0  0  0  0  0  0  0  0  0  0
    4.7773   -3.6673    0.3544 N   0  0  0  0  0  0  0  0  0  0  0  0
    6.6295   -2.3071   -0.1618 N   0  0  0  0  0  0  0  0  0  0  0  0
    7.2837   -3.5505   -0.1176 O   0  0  0  0  0  0  0  0  0  0  0  0
    3.0777   -1.3287    0.0223 C   0  0  0  0  0  0  0  0  0  0  0  0
    2.3923   -2.3473   -0.0362 O   0  0  0  0  0  0  0  0  0  0  0  0
    0.5955    0.9418   -0.0475 H   0  0  0  0  0  0  0  0  0  0  0  0
    0.5547   -0.6516    0.7886 H   0  0  0  0  0  0  0  0  0  0  0  0
    0.6499   -0.5960   -0.9811 H   0  0  0  0  0  0  0  0  0  0  0  0
    2.5160    2.0114    0.0687 H   0  0  0  0  0  0  0  0  0  0  0  0
    6.1963    0.0836    0.2507 H   0  0  0  0  0  0  0  0  0  0  0  0
    3.7672   -3.7146    0.2502 H   0  0  0  0  0  0  0  0  0  0  0  0
    5.3417   -4.4846    0.1565 H   0  0  0  0  0  0  0  0  0  0  0  0
    8.1870   -3.3231   -0.3675 H   0  0  0  0  0  0  0  0  0  0  0  0
  1  2  1  0
  1 13  1  0
  1 14  1  0
  1 15  1  0
  2  3  1  0
  2 11  1  0
  3  4  2  0
  3 16  1  0
  4  5  1  0
  5  6  2  0
  5 17  1  0
  6  7  1  0
  6 11  1  0
  7  8  1  0
  7  9  2  0
  8 18  1  0
  8 19  1  0
  9 10  1  0
 10 20  1  0
 11 12  2  0
M  END

