
     RDKit          3D

 32 35  0  0  0  0  0  0  0  0999 V2000
    0.9383   -0.0194    0.0550 C   0  0  0  0  0  0  0  0  0  0  0  0
    2.4471   -0.0640    0.0555 C   0  0  0  0  0  0  0  0  0  0  0  0
    3.1094   -1.2979    0.0549 C   0  0  0  0  0  0  0  0  0  0  0  0
    4.5001   -1.3872    0.0553 C   0  0  0  0  0  0  0  0  0  0  0  0
    5.2932   -0.2294    0.0563 C   0  0  0  0  0  0  0  0  0  0  0  0
    6.7282   -0.2803    0.0566 C   0  0  0  0  0  0  0  0  0  0  0  0
    7.4830    0.8546    0.0577 C   0  0  0  0  0  0  0  0  0  0  0  0
    6.8850    2.1669    0.0586 C   0  0  0  0  0  0  0  0  0  0  0  0
    7.6485    3.3624    0.0598 C   0  0  0  0  0  0  0  0  0  0  0  0
    9.1603    3.3880    0.0603 C   0  0  0  0  0  0  0  0  0  0  0  0
    6.9756    4.5952    0.0600 C   0  0  0  0  0  0  0  0  0  0  0  0
    5.5892    4.6811    0.0592 C   0  0  0  0  0  0  0  0  0  0  0  0
    4.7998    3.5178    0.0583 C   0  0  0  0  0  0  0  0  0  0  0  0
    3.3657    3.5691    0.0577 C   0  0  0  0  0  0  0  0  0  0  0  0
    2.6117    2.4320    0.0569 C   0  0  0  0  0  0  0  0  0  0  0  0
    3.2197    1.1275    0.0564 C   0  0  0  0  0  0  0  0  0  0  0  0
    4.6526    1.0499    0.0569 C   0  0  0  0  0  0  0  0  0  0  0  0
    5.4475    2.2435    0.0579 C   0  0  0  0  0  0  0  0  0  0  0  0
    0.5160   -1.0346    0.0548 H   0  0  0  0  0  0  0  0  0  0  0  0
    0.5424    0.5059   -0.8307 H   0  0  0  0  0  0  0  0  0  0  0  0
    0.5418    0.5058    0.9404 H   0  0  0  0  0  0  0  0  0  0  0  0
    2.5150   -2.2160    0.0542 H   0  0  0  0  0  0  0  0  0  0  0  0
    4.9859   -2.3668    0.0548 H   0  0  0  0  0  0  0  0  0  0  0  0
    7.2127   -1.2608    0.0560 H   0  0  0  0  0  0  0  0  0  0  0  0
    8.5694    0.7637    0.0577 H   0  0  0  0  0  0  0  0  0  0  0  0
    9.6209    2.3933    0.0689 H   0  0  0  0  0  0  0  0  0  0  0  0
    9.5392    3.9335    0.9409 H   0  0  0  0  0  0  0  0  0  0  0  0
    9.5403    3.9187   -0.8290 H   0  0  0  0  0  0  0  0  0  0  0  0
    7.5673    5.5157    0.0609 H   0  0  0  0  0  0  0  0  0  0  0  0
    5.0991    5.6586    0.0595 H   0  0  0  0  0  0  0  0  0  0  0  0
    2.8821    4.5500    0.0580 H   0  0  0  0  0  0  0  0  0  0  0  0
    1.5237    2.5119    0.0565 H   0  0  0  0  0  0  0  0  0  0  0  0
  1  2  1  0
  1 19  1  0
  1 20  1  0
  1 21  1  0
  2  3  2  0
  2 16  1  0
  3  4  1  0
  3 22  1  0
  4  5  2  0
  4 23  1  0
  5  6  1  0
  5 17  1  0
  6  7  2  0
  6 24  1  0
  7  8  1  0
  7 25  1  0
  8  9  2  0
  8 18  1  0
  9 10  1  0
  9 11  1  0
 10 26  1  0
 10 27  1  0
 10 28  1  0
 11 12  2  0
 11 29  1  0
 12 13  1  0
 12 30  1  0
 13 14  2  0
 13 18  1  0
 14 15  1  0
 14 31  1  0
 15 16  2  0
 15 32  1  0
 16 17  1  0
 17 18  2  0
M  END

