
     RDKit          3D

 54 54  0  0  0  0  0  0  0  0999 V2000
    8.9092   -3.1026   -1.0853 C   0  0  0  0  0  0  0  0  0  0  0  0
    8.4250   -2.6954    0.3061 C   0  0  0  0  0  0  0  0  0  0  0  0
    7.7675   -1.3097    0.3743 C   0  0  0  0  0  0  0  0  0  0  0  0
    6.5371   -1.1846   -0.3986 N   0  0  0  0  0  0  0  0  0  0  0  0
    6.4368   -0.7235   -1.6992 C   0  0  0  0  0  0  0  0  0  0  0  0
    5.1041   -0.8068   -2.0237 C   0  0  0  0  0  0  0  0  0  0  0  0
    4.3902   -1.3027   -0.9629 N   0  0  0  0  0  0  0  0  0  0  0  0
    5.2653   -1.5248    0.0017 C   0  0  0  0  0  0  0  0  0  0  0  0
    4.9360   -2.0175    1.3821 C   0  0  0  0  0  0  0  0  0  0  0  0
    3.4740   -2.5046    1.5017 C   0  0  1  0  0  0  0  0  0  0  0  0
    3.1074   -3.5691    0.5598 N   0  0  0  0  0  0  0  0  0  0  0  0
    4.0230   -4.6850    0.3540 C   0  0  0  0  0  0  0  0  0  0  0  0
    3.3808   -5.7430   -0.5394 C   0  0  0  0  0  0  0  0  0  0  0  0
    3.0611   -2.8893    2.9462 C   0  0  1  0  0  0  0  0  0  0  0  0
    4.0060   -3.8641    3.3898 O   0  0  0  0  0  0  0  0  0  0  0  0
    3.6395   -4.8824    4.3043 C   0  0  0  0  0  0  0  0  0  0  0  0
    2.4554   -5.7507    3.8888 C   0  0  0  0  0  0  0  0  0  0  0  0
    2.8588   -1.7157    3.9889 C   0  0  1  0  0  0  0  0  0  0  0  0
    2.3584   -0.4294    3.2994 C   0  0  0  0  0  0  0  0  0  0  0  0
    1.7639   -2.1304    5.0008 C   0  0  0  0  0  0  0  0  0  0  0  0
    4.1498   -1.4022    4.7698 C   0  0  0  0  0  0  0  0  0  0  0  0
    9.3890   -4.0934   -1.0597 H   0  0  0  0  0  0  0  0  0  0  0  0
    9.6492   -2.3855   -1.4798 H   0  0  0  0  0  0  0  0  0  0  0  0
    8.0771   -3.1551   -1.8048 H   0  0  0  0  0  0  0  0  0  0  0  0
    9.2750   -2.6875    1.0109 H   0  0  0  0  0  0  0  0  0  0  0  0
    7.7156   -3.4470    0.6920 H   0  0  0  0  0  0  0  0  0  0  0  0
    8.4672   -0.5415    0.0071 H   0  0  0  0  0  0  0  0  0  0  0  0
    7.5417   -1.0563    1.4212 H   0  0  0  0  0  0  0  0  0  0  0  0
    7.3065   -0.3826   -2.2553 H   0  0  0  0  0  0  0  0  0  0  0  0
    4.6247   -0.5341   -2.9632 H   0  0  0  0  0  0  0  0  0  0  0  0
    5.1044   -1.1947    2.0977 H   0  0  0  0  0  0  0  0  0  0  0  0
    5.6201   -2.8218    1.6929 H   0  0  0  0  0  0  0  0  0  0  0  0
    2.8364   -1.6620    1.2068 H   0  0  0  0  0  0  0  0  0  0  0  0
    2.9483   -3.1162   -0.3398 H   0  0  0  0  0  0  0  0  0  0  0  0
    4.2742   -5.1219    1.3306 H   0  0  0  0  0  0  0  0  0  0  0  0
    4.9905   -4.3775   -0.1044 H   0  0  0  0  0  0  0  0  0  0  0  0
    2.4441   -6.1136   -0.0935 H   0  0  0  0  0  0  0  0  0  0  0  0
    4.0594   -6.5971   -0.6971 H   0  0  0  0  0  0  0  0  0  0  0  0
    3.1339   -5.3275   -1.5313 H   0  0  0  0  0  0  0  0  0  0  0  0
    2.0757   -3.3636    2.8056 H   0  0  0  0  0  0  0  0  0  0  0  0
    3.4609   -4.4666    5.3147 H   0  0  0  0  0  0  0  0  0  0  0  0
    4.5408   -5.5122    4.3870 H   0  0  0  0  0  0  0  0  0  0  0  0
    1.5047   -5.1966    3.8884 H   0  0  0  0  0  0  0  0  0  0  0  0
    2.3489   -6.5855    4.6007 H   0  0  0  0  0  0  0  0  0  0  0  0
    2.6029   -6.1722    2.8827 H   0  0  0  0  0  0  0  0  0  0  0  0
    1.4485   -0.6120    2.7047 H   0  0  0  0  0  0  0  0  0  0  0  0
    3.1122    0.0175    2.6340 H   0  0  0  0  0  0  0  0  0  0  0  0
    2.1050    0.3268    4.0603 H   0  0  0  0  0  0  0  0  0  0  0  0
    0.8096   -2.3392    4.4900 H   0  0  0  0  0  0  0  0  0  0  0  0
    1.5817   -1.3197    5.7255 H   0  0  0  0  0  0  0  0  0  0  0  0
    2.0388   -3.0254    5.5770 H   0  0  0  0  0  0  0  0  0  0  0  0
    4.9589   -1.0467    4.1151 H   0  0  0  0  0  0  0  0  0  0  0  0
    4.5271   -2.2857    5.3038 H   0  0  0  0  0  0  0  0  0  0  0  0
    3.9568   -0.6116    5.5136 H   0  0  0  0  0  0  0  0  0  0  0  0
  1  2  1  0
  1 22  1  0
  1 23  1  0
  1 24  1  0
  2  3  1  0
  2 25  1  0
  2 26  1  0
  3  4  1  0
  3 27  1  0
  3 28  1  0
  4  5  1  0
  4  8  1  0
  5  6  2  0
  5 29  1  0
  6  7  1  0
  6 30  1  0
  7  8  2  0
  8  9  1  0
  9 10  1  0
  9 31  1  0
  9 32  1  0
 10 11  1  0
 10 14  1  0
 10 33  1  6
 11 12  1  0
 11 34  1  0
 12 13  1  0
 12 35  1  0
 12 36  1  0
 13 37  1  0
 13 38  1  0
 13 39  1  0
 14 15  1  0
 14 18  1  0
 14 40  1  6
 15 16  1  0
 16 17  1  0
 16 41  1  0
 16 42  1  0
 17 43  1  0
 17 44  1  0
 17 45  1  0
 18 19  1  6
 18 20  1  0
 18 21  1  0
 19 46  1  0
 19 47  1  0
 19 48  1  0
 20 49  1  0
 20 50  1  0
 20 51  1  0
 21 52  1  0
 21 53  1  0
 21 54  1  0
M  END

