
     RDKit          3D

 46 49  0  0  0  0  0  0  0  0999 V2000
    0.9913    0.1469   -0.3223 O   0  0  0  0  0  0  0  0  0  0  0  0
    2.4289    0.2024   -0.0137 S   0  0  2  0  0  0  0  0  0  0  0  0
    2.9078    0.9131    1.1884 O   0  0  0  0  0  0  0  0  0  0  0  0
    3.3018    0.9480   -1.4291 C   0  0  0  0  0  0  0  0  0  0  0  0
    4.8131    0.7669   -1.2633 C   0  0  0  0  0  0  0  0  0  0  0  0
    5.1790   -0.6350   -1.1498 N   0  0  0  0  0  0  0  0  0  0  0  0
    5.9204   -1.2948   -2.0940 C   0  0  0  0  0  0  0  0  0  0  0  0
    6.2797   -2.5440   -2.0073 N   0  0  0  0  0  0  0  0  0  0  0  0
    7.0211   -2.9531   -3.1000 C   0  0  0  0  0  0  0  0  0  0  0  0
    7.5204   -4.3432   -3.1539 C   0  0  0  0  0  0  0  0  0  0  0  0
    8.0690   -4.8902   -4.3298 C   0  0  0  0  0  0  0  0  0  0  0  0
    8.5485   -6.1985   -4.3635 C   0  0  0  0  0  0  0  0  0  0  0  0
    8.4758   -6.9749   -3.2078 C   0  0  0  0  0  0  0  0  0  0  0  0
    8.9334   -8.2353   -3.2360 F   0  0  0  0  0  0  0  0  0  0  0  0
    7.9344   -6.4703   -2.0284 C   0  0  0  0  0  0  0  0  0  0  0  0
    7.4593   -5.1584   -2.0085 C   0  0  0  0  0  0  0  0  0  0  0  0
    7.2330   -1.9835   -4.0483 C   0  0  0  0  0  0  0  0  0  0  0  0
    6.4736   -0.4887   -3.5749 S   0  0  0  0  0  0  0  0  0  0  0  0
    4.6813   -1.3446    0.0239 C   0  0  0  0  0  0  0  0  0  0  0  0
    3.1406   -1.5223    0.0416 C   0  0  2  0  0  0  0  0  0  0  0  0
    2.5856   -2.3316   -1.1462 C   0  0  0  0  0  0  0  0  0  0  0  0
    2.8758   -3.8364   -1.0188 C   0  0  0  0  0  0  0  0  0  0  0  0
    2.3763   -4.4005    0.3156 C   0  0  0  0  0  0  0  0  0  0  0  0
    2.9549   -3.6180    1.4995 C   0  0  0  0  0  0  0  0  0  0  0  0
    2.6587   -2.1150    1.3838 C   0  0  0  0  0  0  0  0  0  0  0  0
    3.0022    2.0065   -1.3973 H   0  0  0  0  0  0  0  0  0  0  0  0
    2.9128    0.4838   -2.3461 H   0  0  0  0  0  0  0  0  0  0  0  0
    5.1343    1.3053   -0.3545 H   0  0  0  0  0  0  0  0  0  0  0  0
    5.3388    1.2259   -2.1128 H   0  0  0  0  0  0  0  0  0  0  0  0
    8.1122   -4.2929   -5.2428 H   0  0  0  0  0  0  0  0  0  0  0  0
    8.9711   -6.6293   -5.2733 H   0  0  0  0  0  0  0  0  0  0  0  0
    7.8929   -7.1069   -1.1424 H   0  0  0  0  0  0  0  0  0  0  0  0
    7.0358   -4.7439   -1.0933 H   0  0  0  0  0  0  0  0  0  0  0  0
    7.8015   -2.0372   -4.9730 H   0  0  0  0  0  0  0  0  0  0  0  0
    4.9787   -0.7908    0.9301 H   0  0  0  0  0  0  0  0  0  0  0  0
    5.1676   -2.3268    0.0479 H   0  0  0  0  0  0  0  0  0  0  0  0
    2.9977   -1.9544   -2.0956 H   0  0  0  0  0  0  0  0  0  0  0  0
    1.4966   -2.1675   -1.1835 H   0  0  0  0  0  0  0  0  0  0  0  0
    3.9593   -4.0155   -1.1248 H   0  0  0  0  0  0  0  0  0  0  0  0
    2.3961   -4.3611   -1.8613 H   0  0  0  0  0  0  0  0  0  0  0  0
    2.6344   -5.4691    0.3999 H   0  0  0  0  0  0  0  0  0  0  0  0
    1.2729   -4.3415    0.3478 H   0  0  0  0  0  0  0  0  0  0  0  0
    4.0451   -3.7864    1.5569 H   0  0  0  0  0  0  0  0  0  0  0  0
    2.5400   -3.9902    2.4505 H   0  0  0  0  0  0  0  0  0  0  0  0
    3.1068   -1.5554    2.2186 H   0  0  0  0  0  0  0  0  0  0  0  0
    1.5685   -1.9581    1.4504 H   0  0  0  0  0  0  0  0  0  0  0  0
  1  2  2  0
  2  3  2  0
  2  4  1  6
  2 20  1  0
  4  5  1  0
  4 26  1  0
  4 27  1  0
  5  6  1  0
  5 28  1  0
  5 29  1  0
  6  7  1  0
  6 19  1  0
  7  8  2  0
  7 18  1  0
  8  9  1  0
  9 10  1  0
  9 17  2  0
 10 11  2  0
 10 16  1  0
 11 12  1  0
 11 30  1  0
 12 13  2  0
 12 31  1  0
 13 14  1  0
 13 15  1  0
 15 16  2  0
 15 32  1  0
 16 33  1  0
 17 18  1  0
 17 34  1  0
 20 19  1  1
 19 35  1  0
 19 36  1  0
 20 21  1  0
 20 25  1  0
 21 22  1  0
 21 37  1  0
 21 38  1  0
 22 23  1  0
 22 39  1  0
 22 40  1  0
 23 24  1  0
 23 41  1  0
 23 42  1  0
 24 25  1  0
 24 43  1  0
 24 44  1  0
 25 45  1  0
 25 46  1  0
M  END

