
     RDKit          3D

 45 47  0  0  0  0  0  0  0  0999 V2000
    1.5665   -0.9104    0.8526 C   0  0  0  0  0  0  0  0  0  0  0  0
    2.8048   -0.2848    0.2071 C   0  0  0  0  0  0  0  0  0  0  0  0
    2.7421   -0.0984   -1.3275 C   0  0  1  0  0  0  0  0  0  0  0  0
    1.6200    0.8697   -1.7319 C   0  0  0  0  0  0  0  0  0  0  0  0
    1.7709    2.1937   -1.2606 O   0  0  0  0  0  0  0  0  0  0  0  0
    4.0771    0.2778   -1.8163 N   0  0  0  0  0  0  0  0  0  0  0  0
    4.9931   -0.8380   -2.0272 C   0  0  0  0  0  0  0  0  0  0  0  0
    4.8886   -1.4543   -3.4301 C   0  0  0  0  0  0  0  0  0  0  0  0
    5.0768   -0.4159   -4.4412 N   0  0  0  0  0  0  0  0  0  0  0  0
    5.7335   -0.7590   -5.6095 C   0  0  0  0  0  0  0  0  0  0  0  0
    6.0880   -1.9090   -5.8310 O   0  0  0  0  0  0  0  0  0  0  0  0
    6.0586    0.3320   -6.5952 C   0  0  0  0  0  0  0  0  0  0  0  0
    5.9150    0.0343   -7.9746 C   0  0  0  0  0  0  0  0  0  0  0  0
    6.2699    0.9486   -8.9558 C   0  0  0  0  0  0  0  0  0  0  0  0
    6.8146    2.1923   -8.5754 C   0  0  0  0  0  0  0  0  0  0  0  0
    7.3021    3.3414   -9.2875 C   0  0  0  0  0  0  0  0  0  0  0  0
    7.7375    4.2419   -8.3441 C   0  0  0  0  0  0  0  0  0  0  0  0
    7.5481    3.7197   -7.0811 N   0  0  0  0  0  0  0  0  0  0  0  0
    7.7900    4.1827   -6.2157 H   0  0  0  0  0  0  0  0  0  0  0  0
    6.9818    2.4665   -7.1856 C   0  0  0  0  0  0  0  0  0  0  0  0
    6.6055    1.5542   -6.1926 C   0  0  0  0  0  0  0  0  0  0  0  0
    4.1540    0.7092   -4.2864 C   0  0  0  0  0  0  0  0  0  0  0  0
    4.2463    1.2786   -2.8624 C   0  0  0  0  0  0  0  0  0  0  0  0
    1.7373   -1.1026    1.9235 H   0  0  0  0  0  0  0  0  0  0  0  0
    1.3121   -1.8749    0.3815 H   0  0  0  0  0  0  0  0  0  0  0  0
    0.6766   -0.2645    0.7780 H   0  0  0  0  0  0  0  0  0  0  0  0
    3.6836   -0.9088    0.4351 H   0  0  0  0  0  0  0  0  0  0  0  0
    3.0349    0.6951    0.6648 H   0  0  0  0  0  0  0  0  0  0  0  0
    2.4259   -1.0739   -1.7613 H   0  0  0  0  0  0  0  0  0  0  0  0
    0.6601    0.4323   -1.3961 H   0  0  0  0  0  0  0  0  0  0  0  0
    1.5550    0.9415   -2.8277 H   0  0  0  0  0  0  0  0  0  0  0  0
    1.9124    2.1667   -0.3054 H   0  0  0  0  0  0  0  0  0  0  0  0
    4.8169   -1.6175   -1.2702 H   0  0  0  0  0  0  0  0  0  0  0  0
    6.0300   -0.4810   -1.8833 H   0  0  0  0  0  0  0  0  0  0  0  0
    3.8991   -1.9371   -3.5638 H   0  0  0  0  0  0  0  0  0  0  0  0
    5.6474   -2.2305   -3.5904 H   0  0  0  0  0  0  0  0  0  0  0  0
    5.5230   -0.9469   -8.2484 H   0  0  0  0  0  0  0  0  0  0  0  0
    6.1406    0.7024  -10.0128 H   0  0  0  0  0  0  0  0  0  0  0  0
    7.3300    3.4817  -10.3660 H   0  0  0  0  0  0  0  0  0  0  0  0
    8.1750    5.2302   -8.4741 H   0  0  0  0  0  0  0  0  0  0  0  0
    6.7613    1.7756   -5.1342 H   0  0  0  0  0  0  0  0  0  0  0  0
    3.1202    0.3572   -4.4819 H   0  0  0  0  0  0  0  0  0  0  0  0
    4.3744    1.4846   -5.0291 H   0  0  0  0  0  0  0  0  0  0  0  0
    3.5301    2.0967   -2.7180 H   0  0  0  0  0  0  0  0  0  0  0  0
    5.2563    1.7163   -2.7421 H   0  0  0  0  0  0  0  0  0  0  0  0
  1  2  1  0
  1 24  1  0
  1 25  1  0
  1 26  1  0
  2  3  1  0
  2 27  1  0
  2 28  1  0
  3  4  1  0
  3  6  1  0
  3 29  1  6
  4  5  1  0
  4 30  1  0
  4 31  1  0
  5 32  1  0
  6  7  1  0
  6 23  1  0
  7  8  1  0
  7 33  1  0
  7 34  1  0
  8  9  1  0
  8 35  1  0
  8 36  1  0
  9 10  1  0
  9 22  1  0
 10 11  2  0
 10 12  1  0
 12 13  2  0
 12 21  1  0
 13 14  1  0
 13 37  1  0
 14 15  2  0
 14 38  1  0
 15 16  1  0
 15 20  1  0
 16 17  2  0
 16 39  1  0
 17 18  1  0
 17 40  1  0
 18 19  1  0
 18 20  1  0
 20 21  2  0
 21 41  1  0
 22 23  1  0
 22 42  1  0
 22 43  1  0
 23 44  1  0
 23 45  1  0
M  END

