
     RDKit          3D

 46 47  0  0  0  0  0  0  0  0999 V2000
    3.3627   -0.4017    2.3068 C   0  0  0  0  0  0  0  0  0  0  0  0
    3.1661   -0.0370    0.8575 C   0  0  0  0  0  0  0  0  0  0  0  0
    3.6508    1.1701    0.3307 C   0  0  0  0  0  0  0  0  0  0  0  0
    3.4606    1.5161   -1.0092 C   0  0  0  0  0  0  0  0  0  0  0  0
    2.7855    0.6364   -1.8600 C   0  0  0  0  0  0  0  0  0  0  0  0
    2.3009   -0.5751   -1.3648 C   0  0  0  0  0  0  0  0  0  0  0  0
    2.4774   -0.9038   -0.0125 C   0  0  0  0  0  0  0  0  0  0  0  0
    2.0570   -2.1110    0.4933 O   0  0  0  0  0  0  0  0  0  0  0  0
    0.7045   -2.5049    0.3070 C   0  0  0  0  0  0  0  0  0  0  0  0
    0.6151   -4.0325    0.3999 C   0  0  1  0  0  0  0  0  0  0  0  0
    1.0953   -4.5826    1.7406 C   0  0  0  0  0  0  0  0  0  0  0  0
   -0.7497   -4.4675    0.1318 N   0  0  0  0  0  0  0  0  0  0  0  0
   -1.2387   -4.5815   -1.1268 C   0  0  0  0  0  0  0  0  0  0  0  0
   -0.5914   -4.3574   -2.1383 O   0  0  0  0  0  0  0  0  0  0  0  0
   -2.7045   -5.0295   -1.2402 C   0  0  1  0  0  0  0  0  0  0  0  0
   -2.8323   -6.2074   -2.1982 C   0  0  0  0  0  0  0  0  0  0  0  0
   -3.2099   -5.3593    0.0741 O   0  0  0  0  0  0  0  0  0  0  0  0
   -4.5446   -5.2078    0.3087 C   0  0  0  0  0  0  0  0  0  0  0  0
   -5.3790   -6.3347    0.3339 C   0  0  0  0  0  0  0  0  0  0  0  0
   -6.7372   -6.2141    0.6325 C   0  0  0  0  0  0  0  0  0  0  0  0
   -7.2847   -4.9579    0.9093 C   0  0  0  0  0  0  0  0  0  0  0  0
   -6.4695   -3.8241    0.8951 C   0  0  0  0  0  0  0  0  0  0  0  0
   -5.1097   -3.9503    0.5986 C   0  0  0  0  0  0  0  0  0  0  0  0
   -4.0925   -2.5240    0.6160 Cl  0  0  0  0  0  0  0  0  0  0  0  0
    4.1242    0.2391    2.7754 H   0  0  0  0  0  0  0  0  0  0  0  0
    3.6703   -1.4509    2.4236 H   0  0  0  0  0  0  0  0  0  0  0  0
    2.4271   -0.2812    2.8802 H   0  0  0  0  0  0  0  0  0  0  0  0
    4.1900    1.8522    0.9945 H   0  0  0  0  0  0  0  0  0  0  0  0
    3.8495    2.4633   -1.3906 H   0  0  0  0  0  0  0  0  0  0  0  0
    2.6463    0.8858   -2.9148 H   0  0  0  0  0  0  0  0  0  0  0  0
    1.7984   -1.2823   -2.0292 H   0  0  0  0  0  0  0  0  0  0  0  0
    0.3282   -2.1959   -0.6789 H   0  0  0  0  0  0  0  0  0  0  0  0
    0.0665   -2.0317    1.0799 H   0  0  0  0  0  0  0  0  0  0  0  0
    1.2431   -4.4332   -0.4118 H   0  0  0  0  0  0  0  0  0  0  0  0
    0.4647   -4.2157    2.5689 H   0  0  0  0  0  0  0  0  0  0  0  0
    2.1272   -4.2594    1.9347 H   0  0  0  0  0  0  0  0  0  0  0  0
    1.0643   -5.6828    1.7440 H   0  0  0  0  0  0  0  0  0  0  0  0
   -1.3987   -4.6020    0.8995 H   0  0  0  0  0  0  0  0  0  0  0  0
   -3.2645   -4.1639   -1.6320 H   0  0  0  0  0  0  0  0  0  0  0  0
   -2.3042   -7.0862   -1.7984 H   0  0  0  0  0  0  0  0  0  0  0  0
   -2.3795   -5.9359   -3.1624 H   0  0  0  0  0  0  0  0  0  0  0  0
   -3.8879   -6.4692   -2.3648 H   0  0  0  0  0  0  0  0  0  0  0  0
   -4.9303   -7.3082    0.1264 H   0  0  0  0  0  0  0  0  0  0  0  0
   -7.3697   -7.1048    0.6492 H   0  0  0  0  0  0  0  0  0  0  0  0
   -8.3465   -4.8578    1.1444 H   0  0  0  0  0  0  0  0  0  0  0  0
   -6.8744   -2.8359    1.1194 H   0  0  0  0  0  0  0  0  0  0  0  0
  1  2  1  0
  1 25  1  0
  1 26  1  0
  1 27  1  0
  2  3  2  0
  2  7  1  0
  3  4  1  0
  3 28  1  0
  4  5  2  0
  4 29  1  0
  5  6  1  0
  5 30  1  0
  6  7  2  0
  6 31  1  0
  7  8  1  0
  8  9  1  0
  9 10  1  0
  9 32  1  0
  9 33  1  0
 10 11  1  0
 10 12  1  0
 10 34  1  6
 11 35  1  0
 11 36  1  0
 11 37  1  0
 12 13  1  0
 12 38  1  0
 13 14  2  0
 13 15  1  0
 15 16  1  0
 15 17  1  0
 15 39  1  6
 16 40  1  0
 16 41  1  0
 16 42  1  0
 17 18  1  0
 18 19  2  0
 18 23  1  0
 19 20  1  0
 19 43  1  0
 20 21  2  0
 20 44  1  0
 21 22  1  0
 21 45  1  0
 22 23  2  0
 22 46  1  0
 23 24  1  0
M  END

