
     RDKit          3D

 26 27  0  0  0  0  0  0  0  0999 V2000
    1.4031   -0.1653    0.5765 N   0  0  0  0  0  0  0  0  0  0  0  0
    2.5373   -0.0930    0.3374 C   0  0  0  0  0  0  0  0  0  0  0  0
    3.9392   -0.0017    0.0416 C   0  0  0  0  0  0  0  0  0  0  0  0
    4.5551    1.2593   -0.0811 C   0  0  0  0  0  0  0  0  0  0  0  0
    5.9124    1.3483   -0.3674 C   0  0  0  0  0  0  0  0  0  0  0  0
    6.6879    0.1806   -0.5383 C   0  0  0  0  0  0  0  0  0  0  0  0
    8.0804    0.2568   -0.8320 C   0  0  0  0  0  0  0  0  0  0  0  0
    9.2731    0.2747   -1.0840 C   0  0  0  0  0  0  0  0  0  0  0  0
   10.6652    0.2343   -1.3784 C   0  0  0  0  0  0  0  0  0  0  0  0
   11.4150    1.4180   -1.5291 C   0  0  0  0  0  0  0  0  0  0  0  0
   12.7776    1.3687   -1.8172 C   0  0  0  0  0  0  0  0  0  0  0  0
   13.4272    0.1372   -1.9623 C   0  0  0  0  0  0  0  0  0  0  0  0
   12.7084   -1.0490   -1.8180 C   0  0  0  0  0  0  0  0  0  0  0  0
   11.3347   -1.0146   -1.5276 C   0  0  0  0  0  0  0  0  0  0  0  0
   10.6040   -2.2414   -1.3811 C   0  0  0  0  0  0  0  0  0  0  0  0
   10.0160   -3.2359   -1.2632 N   0  0  0  0  0  0  0  0  0  0  0  0
    6.0636   -1.0814   -0.4139 C   0  0  0  0  0  0  0  0  0  0  0  0
    4.7065   -1.1712   -0.1276 C   0  0  0  0  0  0  0  0  0  0  0  0
    3.9599    2.1648    0.0500 H   0  0  0  0  0  0  0  0  0  0  0  0
    6.3884    2.3259   -0.4623 H   0  0  0  0  0  0  0  0  0  0  0  0
   10.9083    2.3781   -1.4160 H   0  0  0  0  0  0  0  0  0  0  0  0
   13.3392    2.2991   -1.9298 H   0  0  0  0  0  0  0  0  0  0  0  0
   14.4951    0.1011   -2.1880 H   0  0  0  0  0  0  0  0  0  0  0  0
   13.2037   -2.0154   -1.9287 H   0  0  0  0  0  0  0  0  0  0  0  0
    6.6607   -1.9858   -0.5456 H   0  0  0  0  0  0  0  0  0  0  0  0
    4.2290   -2.1482   -0.0326 H   0  0  0  0  0  0  0  0  0  0  0  0
  1  2  3  0
  2  3  1  0
  3  4  2  0
  3 18  1  0
  4  5  1  0
  4 19  1  0
  5  6  2  0
  5 20  1  0
  6  7  1  0
  6 17  1  0
  7  8  3  0
  8  9  1  0
  9 10  2  0
  9 14  1  0
 10 11  1  0
 10 21  1  0
 11 12  2  0
 11 22  1  0
 12 13  1  0
 12 23  1  0
 13 14  2  0
 13 24  1  0
 14 15  1  0
 15 16  3  0
 17 18  2  0
 17 25  1  0
 18 26  1  0
M  END

