
     RDKit          3D

 26 26  0  0  0  0  0  0  0  0999 V2000
    1.3545    0.7451   -0.4678 C   0  0  0  0  0  0  0  0  0  0  0  0
    2.3342    0.0019    0.0566 C   0  0  0  0  0  0  0  0  0  0  0  0
    3.1724    0.3687    1.2478 C   0  0  0  0  0  0  0  0  0  0  0  0
    4.6644    0.6085    0.8903 C   0  0  1  0  0  0  0  0  0  0  0  0
    4.8871    1.6752   -0.0766 N   0  0  0  0  0  0  0  0  0  0  0  0
    5.4915    0.8846    2.1671 C   0  0  0  0  0  0  0  0  0  0  0  0
    6.9862    0.8188    1.9621 C   0  0  0  0  0  0  0  0  0  0  0  0
    7.7063    1.8806    1.3858 C   0  0  0  0  0  0  0  0  0  0  0  0
    9.0205    1.8540    1.1657 N   0  0  0  0  0  0  0  0  0  0  0  0
    9.7088    0.7629    1.5018 C   0  0  0  0  0  0  0  0  0  0  0  0
    9.0903   -0.3488    2.0817 C   0  0  0  0  0  0  0  0  0  0  0  0
   10.1242   -1.8798    2.5518 Br  0  0  0  0  0  0  0  0  0  0  0  0
    7.7149   -0.3238    2.3163 C   0  0  0  0  0  0  0  0  0  0  0  0
    0.7922    0.4160   -1.3463 H   0  0  0  0  0  0  0  0  0  0  0  0
    1.0678    1.7073   -0.0293 H   0  0  0  0  0  0  0  0  0  0  0  0
    2.5796   -0.9572   -0.4201 H   0  0  0  0  0  0  0  0  0  0  0  0
    3.1144   -0.4434    1.9960 H   0  0  0  0  0  0  0  0  0  0  0  0
    2.7695    1.2776    1.7302 H   0  0  0  0  0  0  0  0  0  0  0  0
    5.0545   -0.3218    0.4381 H   0  0  0  0  0  0  0  0  0  0  0  0
    4.4346    2.5360    0.2392 H   0  0  0  0  0  0  0  0  0  0  0  0
    4.4591    1.4444   -0.9728 H   0  0  0  0  0  0  0  0  0  0  0  0
    5.2006    0.1589    2.9432 H   0  0  0  0  0  0  0  0  0  0  0  0
    5.2092    1.8812    2.5515 H   0  0  0  0  0  0  0  0  0  0  0  0
    7.1773    2.7899    1.0847 H   0  0  0  0  0  0  0  0  0  0  0  0
   10.7875    0.7626    1.3115 H   0  0  0  0  0  0  0  0  0  0  0  0
    7.2184   -1.1833    2.7737 H   0  0  0  0  0  0  0  0  0  0  0  0
  1  2  2  0
  1 14  1  0
  1 15  1  0
  2  3  1  0
  2 16  1  0
  3  4  1  0
  3 17  1  0
  3 18  1  0
  4  5  1  0
  4  6  1  0
  4 19  1  6
  5 20  1  0
  5 21  1  0
  6  7  1  0
  6 22  1  0
  6 23  1  0
  7  8  2  0
  7 13  1  0
  8  9  1  0
  8 24  1  0
  9 10  2  0
 10 11  1  0
 10 25  1  0
 11 12  1  0
 11 13  2  0
 13 26  1  0
M  END

