
     RDKit          3D

 45 47  0  0  0  0  0  0  0  0999 V2000
    3.5296    0.6641   -4.8217 C   0  0  0  0  0  0  0  0  0  0  0  0
    3.2962   -0.1591   -3.7026 O   0  0  0  0  0  0  0  0  0  0  0  0
    4.1993   -0.1772   -2.6827 C   0  0  0  0  0  0  0  0  0  0  0  0
    5.3906    0.5620   -2.6842 C   0  0  0  0  0  0  0  0  0  0  0  0
    6.2716    0.4677   -1.6004 C   0  0  0  0  0  0  0  0  0  0  0  0
    5.9714   -0.3586   -0.5188 C   0  0  0  0  0  0  0  0  0  0  0  0
    4.7783   -1.0912   -0.5234 C   0  0  0  0  0  0  0  0  0  0  0  0
    3.8761   -1.0114   -1.5870 C   0  0  0  0  0  0  0  0  0  0  0  0
    2.5940   -1.8254   -1.6144 C   0  0  0  0  0  0  0  0  0  0  0  0
    2.1281   -2.2275   -0.2933 N   0  0  0  0  0  0  0  0  0  0  0  0
    1.5244   -1.1232    0.4454 C   0  0  0  0  0  0  0  0  0  0  0  0
    1.0988   -1.5804    1.8075 C   0  0  0  0  0  0  0  0  0  0  0  0
    0.8427   -0.9208    3.0020 C   0  0  0  0  0  0  0  0  0  0  0  0
    0.4734   -1.9488    3.9006 C   0  0  0  0  0  0  0  0  0  0  0  0
    0.5009   -3.1445    3.3174 N   0  0  0  0  0  0  0  0  0  0  0  0
    0.8673   -2.9005    2.0464 N   0  0  0  0  0  0  0  0  0  0  0  0
    1.1073   -3.9832    1.0967 C   0  0  1  0  0  0  0  0  0  0  0  0
    2.0647   -4.4606    1.3569 H   0  0  0  0  0  0  0  0  0  0  0  0
   -0.0524   -5.0120    1.1240 C   0  0  0  0  0  0  0  0  0  0  0  0
   -1.0302   -4.8335    0.4125 O   0  0  0  0  0  0  0  0  0  0  0  0
    0.1062   -6.1223    1.9054 N   0  0  0  0  0  0  0  0  0  0  0  0
    1.1831   -6.3200    2.8656 C   0  0  0  0  0  0  0  0  0  0  0  0
   -0.9131   -7.1586    1.8516 C   0  0  0  0  0  0  0  0  0  0  0  0
    1.2324   -3.3770   -0.3082 C   0  0  0  0  0  0  0  0  0  0  0  0
    2.6714    0.5291   -5.4939 H   0  0  0  0  0  0  0  0  0  0  0  0
    4.4524    0.3771   -5.3577 H   0  0  0  0  0  0  0  0  0  0  0  0
    3.6006    1.7308   -4.5414 H   0  0  0  0  0  0  0  0  0  0  0  0
    5.6417    1.2095   -3.5245 H   0  0  0  0  0  0  0  0  0  0  0  0
    7.1978    1.0481   -1.6125 H   0  0  0  0  0  0  0  0  0  0  0  0
    6.6590   -0.4364    0.3267 H   0  0  0  0  0  0  0  0  0  0  0  0
    4.5212   -1.7442    0.3134 H   0  0  0  0  0  0  0  0  0  0  0  0
    2.7736   -2.7413   -2.2046 H   0  0  0  0  0  0  0  0  0  0  0  0
    1.8185   -1.2621   -2.1738 H   0  0  0  0  0  0  0  0  0  0  0  0
    0.6447   -0.7094   -0.1034 H   0  0  0  0  0  0  0  0  0  0  0  0
    2.2492   -0.3006    0.5422 H   0  0  0  0  0  0  0  0  0  0  0  0
    0.9138    0.1477    3.1918 H   0  0  0  0  0  0  0  0  0  0  0  0
    0.1923   -1.8631    4.9502 H   0  0  0  0  0  0  0  0  0  0  0  0
    1.5108   -5.3640    3.2904 H   0  0  0  0  0  0  0  0  0  0  0  0
    2.0427   -6.8628    2.4300 H   0  0  0  0  0  0  0  0  0  0  0  0
    0.7993   -6.9209    3.7042 H   0  0  0  0  0  0  0  0  0  0  0  0
   -1.6100   -6.9274    1.0382 H   0  0  0  0  0  0  0  0  0  0  0  0
   -1.4773   -7.2093    2.7999 H   0  0  0  0  0  0  0  0  0  0  0  0
   -0.4490   -8.1438    1.6732 H   0  0  0  0  0  0  0  0  0  0  0  0
    0.2155   -3.1286   -0.6736 H   0  0  0  0  0  0  0  0  0  0  0  0
    1.6399   -4.1479   -0.9790 H   0  0  0  0  0  0  0  0  0  0  0  0
  1  2  1  0
  1 25  1  0
  1 26  1  0
  1 27  1  0
  2  3  1  0
  3  4  2  0
  3  8  1  0
  4  5  1  0
  4 28  1  0
  5  6  2  0
  5 29  1  0
  6  7  1  0
  6 30  1  0
  7  8  2  0
  7 31  1  0
  8  9  1  0
  9 10  1  0
  9 32  1  0
  9 33  1  0
 10 11  1  0
 10 24  1  0
 11 12  1  0
 11 34  1  0
 11 35  1  0
 12 13  2  0
 12 16  1  0
 13 14  1  0
 13 36  1  0
 14 15  2  0
 14 37  1  0
 15 16  1  0
 16 17  1  0
 17 18  1  1
 17 19  1  0
 17 24  1  0
 19 20  2  0
 19 21  1  0
 21 22  1  0
 21 23  1  0
 22 38  1  0
 22 39  1  0
 22 40  1  0
 23 41  1  0
 23 42  1  0
 23 43  1  0
 24 44  1  0
 24 45  1  0
M  END

