
     RDKit          3D

 34 36  0  0  0  0  0  0  0  0999 V2000
    1.2609    0.3354   -0.5278 N   0  0  0  0  0  0  0  0  0  0  0  0
    2.6297    0.1867   -0.0590 C   0  0  1  0  0  0  0  0  0  0  0  0
    3.1839    1.2231    0.9388 C   0  0  0  0  0  0  0  0  0  0  0  0
    4.4629    0.5682    1.4820 C   0  0  0  0  0  0  0  0  0  0  0  0
    4.2114   -0.9674    1.4344 C   0  0  2  0  0  0  0  0  0  0  0  0
    5.3215   -1.7249    0.6946 C   0  0  0  0  0  0  0  0  0  0  0  0
    6.0652   -1.1474   -0.0808 O   0  0  0  0  0  0  0  0  0  0  0  0
    5.4580   -3.2024    0.9041 C   0  0  0  0  0  0  0  0  0  0  0  0
    4.6296   -3.9495    1.7639 C   0  0  0  0  0  0  0  0  0  0  0  0
    4.7936   -5.3278    1.9323 C   0  0  0  0  0  0  0  0  0  0  0  0
    5.8158   -5.9493    1.2156 C   0  0  0  0  0  0  0  0  0  0  0  0
    6.6544   -5.2318    0.3457 C   0  0  0  0  0  0  0  0  0  0  0  0
    6.4773   -3.8691    0.1847 C   0  0  0  0  0  0  0  0  0  0  0  0
    7.5964   -6.2232   -0.3015 C   0  0  0  0  0  0  0  0  0  0  0  0
    7.3309   -7.4953    0.5382 C   0  0  0  0  0  0  0  0  0  0  0  0
    6.1042   -7.2676    1.2695 O   0  0  0  0  0  0  0  0  0  0  0  0
    2.8501   -1.1385    0.6890 C   0  0  0  0  0  0  0  0  0  0  0  0
    1.1641    1.1867   -1.0817 H   0  0  0  0  0  0  0  0  0  0  0  0
    0.6265    0.4397    0.2669 H   0  0  0  0  0  0  0  0  0  0  0  0
    3.2840    0.1874   -0.9499 H   0  0  0  0  0  0  0  0  0  0  0  0
    2.4379    1.3685    1.7430 H   0  0  0  0  0  0  0  0  0  0  0  0
    3.3634    2.2090    0.4791 H   0  0  0  0  0  0  0  0  0  0  0  0
    4.7197    0.9101    2.4960 H   0  0  0  0  0  0  0  0  0  0  0  0
    5.3159    0.7990    0.8277 H   0  0  0  0  0  0  0  0  0  0  0  0
    4.1316   -1.3798    2.4501 H   0  0  0  0  0  0  0  0  0  0  0  0
    3.8327   -3.4546    2.3211 H   0  0  0  0  0  0  0  0  0  0  0  0
    4.1529   -5.9046    2.6012 H   0  0  0  0  0  0  0  0  0  0  0  0
    7.1022   -3.2765   -0.4865 H   0  0  0  0  0  0  0  0  0  0  0  0
    8.6518   -5.9136   -0.2591 H   0  0  0  0  0  0  0  0  0  0  0  0
    7.3416   -6.3739   -1.3647 H   0  0  0  0  0  0  0  0  0  0  0  0
    8.1338   -7.6745    1.2738 H   0  0  0  0  0  0  0  0  0  0  0  0
    7.2001   -8.4064   -0.0626 H   0  0  0  0  0  0  0  0  0  0  0  0
    2.0351   -1.2718    1.4226 H   0  0  0  0  0  0  0  0  0  0  0  0
    2.8172   -2.0076    0.0154 H   0  0  0  0  0  0  0  0  0  0  0  0
  1  2  1  0
  1 18  1  0
  1 19  1  0
  2  3  1  0
  2 17  1  0
  2 20  1  6
  3  4  1  0
  3 21  1  0
  3 22  1  0
  4  5  1  0
  4 23  1  0
  4 24  1  0
  5  6  1  0
  5 17  1  0
  5 25  1  1
  6  7  2  0
  6  8  1  0
  8  9  2  0
  8 13  1  0
  9 10  1  0
  9 26  1  0
 10 11  2  0
 10 27  1  0
 11 12  1  0
 11 16  1  0
 12 13  2  0
 12 14  1  0
 13 28  1  0
 14 15  1  0
 14 29  1  0
 14 30  1  0
 15 16  1  0
 15 31  1  0
 15 32  1  0
 17 33  1  0
 17 34  1  0
M  END

