
     RDKit          3D

 43 43  0  0  0  0  0  0  0  0999 V2000
    5.5067   -1.9270    0.7688 C   0  0  0  0  0  0  0  0  0  0  0  0
    4.6850   -0.7292    1.2409 C   0  0  0  0  0  0  0  0  0  0  0  0
    3.2136   -0.7757    0.7662 C   0  0  1  0  0  0  0  0  0  0  0  0
    2.5357   -1.9369    1.2939 N   0  0  0  0  0  0  0  0  0  0  0  0
    1.2244   -2.2647    0.7453 C   0  0  1  0  0  0  0  0  0  0  0  0
    1.3257   -2.8973   -0.6450 C   0  0  0  0  0  0  0  0  0  0  0  0
    0.5335   -3.2398    1.7188 C   0  0  0  0  0  0  0  0  0  0  0  0
    0.5290   -2.7664    3.0974 N   0  0  0  0  0  0  0  0  0  0  0  0
   -0.4172   -1.6875    3.3973 C   0  0  0  0  0  0  0  0  0  0  0  0
   -1.8631   -2.1774    3.5893 C   0  0  0  0  0  0  0  0  0  0  0  0
   -1.9268   -3.2813    4.6549 C   0  0  0  0  0  0  0  0  0  0  0  0
   -0.9200   -4.3986    4.3458 C   0  0  0  0  0  0  0  0  0  0  0  0
    0.4839   -3.8104    4.1194 C   0  0  0  0  0  0  0  0  0  0  0  0
    2.5250    0.5464    1.1370 C   0  0  0  0  0  0  0  0  0  0  0  0
    1.7257    0.6912    2.0309 O   0  0  0  0  0  0  0  0  0  0  0  0
    2.9424    1.5602    0.3533 O   0  0  0  0  0  0  0  0  0  0  0  0
    2.4039    2.8511    0.6397 C   0  0  0  0  0  0  0  0  0  0  0  0
    6.5318   -1.8870    1.1706 H   0  0  0  0  0  0  0  0  0  0  0  0
    5.5785   -1.9500   -0.3316 H   0  0  0  0  0  0  0  0  0  0  0  0
    5.0379   -2.8673    1.0924 H   0  0  0  0  0  0  0  0  0  0  0  0
    5.1373    0.2107    0.8854 H   0  0  0  0  0  0  0  0  0  0  0  0
    4.6880   -0.6805    2.3450 H   0  0  0  0  0  0  0  0  0  0  0  0
    3.2248   -0.8216   -0.3362 H   0  0  0  0  0  0  0  0  0  0  0  0
    2.4207   -1.8516    2.3072 H   0  0  0  0  0  0  0  0  0  0  0  0
    0.5828   -1.3604    0.6573 H   0  0  0  0  0  0  0  0  0  0  0  0
    1.9444   -3.8087   -0.6100 H   0  0  0  0  0  0  0  0  0  0  0  0
    1.7806   -2.2098   -1.3752 H   0  0  0  0  0  0  0  0  0  0  0  0
    0.3266   -3.1635   -1.0268 H   0  0  0  0  0  0  0  0  0  0  0  0
    1.0989   -4.1863    1.6978 H   0  0  0  0  0  0  0  0  0  0  0  0
   -0.4781   -3.4654    1.3181 H   0  0  0  0  0  0  0  0  0  0  0  0
   -0.3499   -0.9182    2.6153 H   0  0  0  0  0  0  0  0  0  0  0  0
   -0.0789   -1.1958    4.3280 H   0  0  0  0  0  0  0  0  0  0  0  0
   -2.2582   -2.5641    2.6323 H   0  0  0  0  0  0  0  0  0  0  0  0
   -2.5086   -1.3271    3.8687 H   0  0  0  0  0  0  0  0  0  0  0  0
   -2.9490   -3.6875    4.7389 H   0  0  0  0  0  0  0  0  0  0  0  0
   -1.6846   -2.8431    5.6418 H   0  0  0  0  0  0  0  0  0  0  0  0
   -1.2398   -4.9492    3.4424 H   0  0  0  0  0  0  0  0  0  0  0  0
   -0.8892   -5.1359    5.1668 H   0  0  0  0  0  0  0  0  0  0  0  0
    1.2025   -4.6018    3.8516 H   0  0  0  0  0  0  0  0  0  0  0  0
    0.8397   -3.3692    5.0701 H   0  0  0  0  0  0  0  0  0  0  0  0
    2.8381    3.5365   -0.0990 H   0  0  0  0  0  0  0  0  0  0  0  0
    2.6714    3.1708    1.6586 H   0  0  0  0  0  0  0  0  0  0  0  0
    1.3065    2.8450    0.5557 H   0  0  0  0  0  0  0  0  0  0  0  0
  1  2  1  0
  1 18  1  0
  1 19  1  0
  1 20  1  0
  2  3  1  0
  2 21  1  0
  2 22  1  0
  3  4  1  0
  3 14  1  0
  3 23  1  6
  4  5  1  0
  4 24  1  0
  5  6  1  0
  5  7  1  0
  5 25  1  6
  6 26  1  0
  6 27  1  0
  6 28  1  0
  7  8  1  0
  7 29  1  0
  7 30  1  0
  8  9  1  0
  8 13  1  0
  9 10  1  0
  9 31  1  0
  9 32  1  0
 10 11  1  0
 10 33  1  0
 10 34  1  0
 11 12  1  0
 11 35  1  0
 11 36  1  0
 12 13  1  0
 12 37  1  0
 12 38  1  0
 13 39  1  0
 13 40  1  0
 14 15  2  0
 14 16  1  0
 16 17  1  0
 17 41  1  0
 17 42  1  0
 17 43  1  0
M  END

