
     RDKit          3D

 53 56  0  0  0  0  0  0  0  0999 V2000
    2.9137   -0.3591   -1.8349 O   0  0  0  0  0  0  0  0  0  0  0  0
    2.4812   -0.0866   -0.7259 C   0  0  0  0  0  0  0  0  0  0  0  0
    0.9760    0.0746   -0.4897 C   0  0  0  0  0  0  0  0  0  0  0  0
    0.1791   -0.9444   -1.2980 C   0  0  0  0  0  0  0  0  0  0  0  0
    0.2765   -2.3383   -0.6907 C   0  0  0  0  0  0  0  0  0  0  0  0
    0.8617   -2.5466    0.3524 O   0  0  0  0  0  0  0  0  0  0  0  0
   -0.3572   -3.3709   -1.3900 N   0  0  0  0  0  0  0  0  0  0  0  0
   -1.0518   -3.2498   -2.6060 C   0  0  0  0  0  0  0  0  0  0  0  0
   -1.5512   -4.4582   -2.9835 C   0  0  0  0  0  0  0  0  0  0  0  0
   -1.1697   -5.4205   -1.9748 C   0  0  0  0  0  0  0  0  0  0  0  0
   -1.3949   -6.7987   -1.8279 C   0  0  0  0  0  0  0  0  0  0  0  0
   -0.8752   -7.4479   -0.7103 C   0  0  0  0  0  0  0  0  0  0  0  0
   -0.1367   -6.7389    0.2559 C   0  0  0  0  0  0  0  0  0  0  0  0
    0.1024   -5.3688    0.1349 C   0  0  0  0  0  0  0  0  0  0  0  0
   -0.4232   -4.7218   -0.9898 C   0  0  0  0  0  0  0  0  0  0  0  0
    3.2577    0.1472    0.3752 N   0  0  0  0  0  0  0  0  0  0  0  0
    4.6651    0.1484    0.4910 C   0  0  0  0  0  0  0  0  0  0  0  0
    5.2246    0.3782    1.7552 C   0  0  0  0  0  0  0  0  0  0  0  0
    6.6067    0.4078    1.9443 C   0  0  0  0  0  0  0  0  0  0  0  0
    7.4943    0.1884    0.8712 C   0  0  0  0  0  0  0  0  0  0  0  0
    8.8927    0.1681    1.0341 N   0  0  0  0  0  0  0  0  0  0  0  0
    9.4382    0.1344    2.3838 C   0  0  0  0  0  0  0  0  0  0  0  0
   10.8798   -0.3863    2.3903 C   0  0  0  0  0  0  0  0  0  0  0  0
   11.7733    0.4074    1.4339 C   0  0  0  0  0  0  0  0  0  0  0  0
   11.1463    0.4390    0.0374 C   0  0  0  0  0  0  0  0  0  0  0  0
    9.7055    0.9481    0.0982 C   0  0  0  0  0  0  0  0  0  0  0  0
    6.9144   -0.0488   -0.3948 C   0  0  0  0  0  0  0  0  0  0  0  0
    5.5371   -0.0649   -0.5925 C   0  0  0  0  0  0  0  0  0  0  0  0
    0.7078    1.0887   -0.8320 H   0  0  0  0  0  0  0  0  0  0  0  0
    0.7237    0.0051    0.5784 H   0  0  0  0  0  0  0  0  0  0  0  0
    0.5751   -0.9628   -2.3259 H   0  0  0  0  0  0  0  0  0  0  0  0
   -0.8826   -0.6529   -1.3593 H   0  0  0  0  0  0  0  0  0  0  0  0
   -1.1221   -2.2908   -3.1094 H   0  0  0  0  0  0  0  0  0  0  0  0
   -2.1274   -4.6536   -3.8859 H   0  0  0  0  0  0  0  0  0  0  0  0
   -1.9673   -7.3486   -2.5792 H   0  0  0  0  0  0  0  0  0  0  0  0
   -1.0403   -8.5204   -0.5805 H   0  0  0  0  0  0  0  0  0  0  0  0
    0.2626   -7.2715    1.1228 H   0  0  0  0  0  0  0  0  0  0  0  0
    0.6750   -4.8176    0.8770 H   0  0  0  0  0  0  0  0  0  0  0  0
    2.7582    0.2853    1.2455 H   0  0  0  0  0  0  0  0  0  0  0  0
    4.5691    0.5519    2.6147 H   0  0  0  0  0  0  0  0  0  0  0  0
    6.9856    0.6167    2.9445 H   0  0  0  0  0  0  0  0  0  0  0  0
    8.8129   -0.5279    2.9997 H   0  0  0  0  0  0  0  0  0  0  0  0
    9.4087    1.1419    2.8605 H   0  0  0  0  0  0  0  0  0  0  0  0
   10.8707   -1.4482    2.0887 H   0  0  0  0  0  0  0  0  0  0  0  0
   11.2720   -0.3459    3.4203 H   0  0  0  0  0  0  0  0  0  0  0  0
   12.7874   -0.0240    1.3995 H   0  0  0  0  0  0  0  0  0  0  0  0
   11.8842    1.4424    1.8077 H   0  0  0  0  0  0  0  0  0  0  0  0
   11.1480   -0.5774   -0.3936 H   0  0  0  0  0  0  0  0  0  0  0  0
   11.7302    1.0822   -0.6422 H   0  0  0  0  0  0  0  0  0  0  0  0
    9.2511    0.9085   -0.8996 H   0  0  0  0  0  0  0  0  0  0  0  0
    9.7099    2.0208    0.4000 H   0  0  0  0  0  0  0  0  0  0  0  0
    7.5591   -0.2563   -1.2509 H   0  0  0  0  0  0  0  0  0  0  0  0
    5.1218   -0.2629   -1.5780 H   0  0  0  0  0  0  0  0  0  0  0  0
  1  2  2  0
  2  3  1  0
  2 16  1  0
  3  4  1  0
  3 29  1  0
  3 30  1  0
  4  5  1  0
  4 31  1  0
  4 32  1  0
  5  6  2  0
  5  7  1  0
  7  8  1  0
  7 15  1  0
  8  9  2  0
  8 33  1  0
  9 10  1  0
  9 34  1  0
 10 11  1  0
 10 15  2  0
 11 12  2  0
 11 35  1  0
 12 13  1  0
 12 36  1  0
 13 14  2  0
 13 37  1  0
 14 15  1  0
 14 38  1  0
 16 17  1  0
 16 39  1  0
 17 18  2  0
 17 28  1  0
 18 19  1  0
 18 40  1  0
 19 20  2  0
 19 41  1  0
 20 21  1  0
 20 27  1  0
 21 22  1  0
 21 26  1  0
 22 23  1  0
 22 42  1  0
 22 43  1  0
 23 24  1  0
 23 44  1  0
 23 45  1  0
 24 25  1  0
 24 46  1  0
 24 47  1  0
 25 26  1  0
 25 48  1  0
 25 49  1  0
 26 50  1  0
 26 51  1  0
 27 28  2  0
 27 52  1  0
 28 53  1  0
M  END

