
     RDKit          3D

 46 49  0  0  0  0  0  0  0  0999 V2000
    1.9757    1.1849   -0.8010 C   0  0  0  0  0  0  0  0  0  0  0  0
    1.7320   -0.1732   -0.5147 O   0  0  0  0  0  0  0  0  0  0  0  0
    2.4511   -1.1265   -1.1622 C   0  0  0  0  0  0  0  0  0  0  0  0
    3.4600   -0.8642   -2.0906 C   0  0  0  0  0  0  0  0  0  0  0  0
    4.1637   -1.9235   -2.7197 C   0  0  0  0  0  0  0  0  0  0  0  0
    5.1916   -1.5221   -3.6699 C   0  0  0  0  0  0  0  0  0  0  0  0
    6.1530   -2.1674   -4.4012 C   0  0  0  0  0  0  0  0  0  0  0  0
    6.5480   -3.6120   -4.3614 C   0  0  0  0  0  0  0  0  0  0  0  0
    5.9733   -4.5762   -3.9216 O   0  0  0  0  0  0  0  0  0  0  0  0
    7.7706   -3.7450   -4.9393 O   0  0  0  0  0  0  0  0  0  0  0  0
    8.2865   -2.4931   -5.3860 C   0  0  0  0  0  0  0  0  0  0  0  0
    7.1368   -1.5068   -5.2709 C   0  0  0  0  0  0  0  0  0  0  0  0
    7.1857   -0.3130   -5.9129 C   0  0  0  0  0  0  0  0  0  0  0  0
    6.1907    0.7551   -6.0997 C   0  0  0  0  0  0  0  0  0  0  0  0
    6.6527    2.0752   -6.2700 C   0  0  0  0  0  0  0  0  0  0  0  0
    5.7860    3.1572   -6.5087 C   0  0  0  0  0  0  0  0  0  0  0  0
    4.4357    2.8707   -6.5923 C   0  0  0  0  0  0  0  0  0  0  0  0
    3.9592    1.5624   -6.4506 C   0  0  0  0  0  0  0  0  0  0  0  0
    4.7964    0.4936   -6.2073 C   0  0  0  0  0  0  0  0  0  0  0  0
    2.6015    1.5592   -6.6084 O   0  0  0  0  0  0  0  0  0  0  0  0
    2.2103    2.9099   -6.8344 C   0  0  0  0  0  0  0  0  0  0  0  0
    3.3897    3.7130   -6.8326 O   0  0  0  0  0  0  0  0  0  0  0  0
    3.8166   -3.2499   -2.3995 C   0  0  0  0  0  0  0  0  0  0  0  0
    2.8090   -3.5129   -1.4686 C   0  0  0  0  0  0  0  0  0  0  0  0
    2.4545   -4.7747   -1.1250 O   0  0  0  0  0  0  0  0  0  0  0  0
    2.1055   -2.4617   -0.8472 C   0  0  0  0  0  0  0  0  0  0  0  0
    1.0848   -2.7484    0.0001 O   0  0  0  0  0  0  0  0  0  0  0  0
    1.3332   -2.5697    1.3874 C   0  0  0  0  0  0  0  0  0  0  0  0
    1.2779    1.7648   -0.1821 H   0  0  0  0  0  0  0  0  0  0  0  0
    1.7900    1.4190   -1.8647 H   0  0  0  0  0  0  0  0  0  0  0  0
    3.0098    1.4817   -0.5478 H   0  0  0  0  0  0  0  0  0  0  0  0
    3.7213    0.1629   -2.3427 H   0  0  0  0  0  0  0  0  0  0  0  0
    5.2077   -0.4379   -3.8107 H   0  0  0  0  0  0  0  0  0  0  0  0
    8.6519   -2.6124   -6.4176 H   0  0  0  0  0  0  0  0  0  0  0  0
    9.1430   -2.2147   -4.7443 H   0  0  0  0  0  0  0  0  0  0  0  0
    8.1405   -0.1010   -6.4117 H   0  0  0  0  0  0  0  0  0  0  0  0
    7.7268    2.2673   -6.2119 H   0  0  0  0  0  0  0  0  0  0  0  0
    6.1588    4.1748   -6.6335 H   0  0  0  0  0  0  0  0  0  0  0  0
    4.3961   -0.5168   -6.1302 H   0  0  0  0  0  0  0  0  0  0  0  0
    1.5328    3.2436   -6.0267 H   0  0  0  0  0  0  0  0  0  0  0  0
    1.7042    2.9944   -7.8129 H   0  0  0  0  0  0  0  0  0  0  0  0
    4.3488   -4.0745   -2.8734 H   0  0  0  0  0  0  0  0  0  0  0  0
    3.0013   -5.3967   -1.6239 H   0  0  0  0  0  0  0  0  0  0  0  0
    0.4118   -2.8575    1.9127 H   0  0  0  0  0  0  0  0  0  0  0  0
    1.5708   -1.5195    1.6244 H   0  0  0  0  0  0  0  0  0  0  0  0
    2.1578   -3.2194    1.7309 H   0  0  0  0  0  0  0  0  0  0  0  0
  1  2  1  0
  1 29  1  0
  1 30  1  0
  1 31  1  0
  2  3  1  0
  3  4  2  0
  3 26  1  0
  4  5  1  0
  4 32  1  0
  5  6  1  0
  5 23  2  0
  6  7  2  0
  6 33  1  0
  7  8  1  0
  7 12  1  0
  8  9  2  0
  8 10  1  0
 10 11  1  0
 11 12  1  0
 11 34  1  0
 11 35  1  0
 12 13  2  0
 13 14  1  0
 13 36  1  0
 14 15  2  0
 14 19  1  0
 15 16  1  0
 15 37  1  0
 16 17  2  0
 16 38  1  0
 17 18  1  0
 17 22  1  0
 18 19  2  0
 18 20  1  0
 19 39  1  0
 20 21  1  0
 21 22  1  0
 21 40  1  0
 21 41  1  0
 23 24  1  0
 23 42  1  0
 24 25  1  0
 24 26  2  0
 25 43  1  0
 26 27  1  0
 27 28  1  0
 28 44  1  0
 28 45  1  0
 28 46  1  0
M  END

