
     RDKit          3D

 63 65  0  0  0  0  0  0  0  0999 V2000
    3.7152   -2.8995   -0.6425 C   0  0  0  0  0  0  0  0  0  0  0  0
    3.9806   -2.1770    0.5307 O   0  0  0  0  0  0  0  0  0  0  0  0
    5.0151   -2.7309    1.3139 C   0  0  0  0  0  0  0  0  0  0  0  0
    5.2329   -1.9045    2.5751 C   0  0  0  0  0  0  0  0  0  0  0  0
    4.1237   -1.9230    3.5335 N   0  0  0  0  0  0  0  0  0  0  0  0
    3.3720   -0.6860    3.7220 C   0  0  0  0  0  0  0  0  0  0  0  0
    2.4392   -0.2998    2.5618 C   0  0  1  0  0  0  0  0  0  0  0  0
    3.0379   -0.2368    1.6446 H   0  0  0  0  0  0  0  0  0  0  0  0
    1.2773   -1.2883    2.3379 C   0  0  0  0  0  0  0  0  0  0  0  0
    0.1279   -0.6526    2.9728 N   0  0  0  0  0  0  0  0  0  0  0  0
   -1.1485   -1.2884    2.6824 C   0  0  0  0  0  0  0  0  0  0  0  0
   -2.3047   -0.7057    3.4536 C   0  0  0  0  0  0  0  0  0  0  0  0
   -3.5957    0.1092    2.6136 S   0  0  0  0  0  0  0  0  0  0  0  0
   -4.4342    0.4344    4.0872 C   0  0  0  0  0  0  0  0  0  0  0  0
   -3.7487   -0.0585    5.1675 C   0  0  0  0  0  0  0  0  0  0  0  0
   -2.5235   -0.7163    4.8177 C   0  0  0  0  0  0  0  0  0  0  0  0
   -1.6022   -1.3632    5.8185 C   0  0  0  0  0  0  0  0  0  0  0  0
    0.2380    0.7545    2.6168 C   0  0  0  0  0  0  0  0  0  0  0  0
    1.7307    1.0644    2.8638 C   0  0  2  0  0  0  0  0  0  0  0  0
    1.8398    1.2748    3.9400 H   0  0  0  0  0  0  0  0  0  0  0  0
    2.2605    2.2664    2.1078 C   0  0  0  0  0  0  0  0  0  0  0  0
    2.3662    2.2681    0.7046 C   0  0  0  0  0  0  0  0  0  0  0  0
    2.8408    3.3911    0.0236 C   0  0  0  0  0  0  0  0  0  0  0  0
    3.2242    4.5411    0.7208 C   0  0  0  0  0  0  0  0  0  0  0  0
    3.1176    4.5316    2.1080 C   0  0  0  0  0  0  0  0  0  0  0  0
    3.4812    5.6226    2.8007 F   0  0  0  0  0  0  0  0  0  0  0  0
    2.6452    3.4210    2.8051 C   0  0  0  0  0  0  0  0  0  0  0  0
    4.0085   -3.0599    4.3043 C   0  0  0  0  0  0  0  0  0  0  0  0
    4.7769   -3.9998    4.1362 O   0  0  0  0  0  0  0  0  0  0  0  0
    2.9367   -3.1328    5.4051 C   0  0  1  0  0  0  0  0  0  0  0  0
    2.4381   -4.5755    5.5432 C   0  0  0  0  0  0  0  0  0  0  0  0
    3.5371   -2.6196    6.7276 C   0  0  0  0  0  0  0  0  0  0  0  0
    2.8884   -2.4001   -1.1688 H   0  0  0  0  0  0  0  0  0  0  0  0
    3.4171   -3.9452   -0.4270 H   0  0  0  0  0  0  0  0  0  0  0  0
    4.5947   -2.9305   -1.3177 H   0  0  0  0  0  0  0  0  0  0  0  0
    5.9666   -2.7453    0.7407 H   0  0  0  0  0  0  0  0  0  0  0  0
    4.7849   -3.7751    1.5948 H   0  0  0  0  0  0  0  0  0  0  0  0
    5.4256   -0.8579    2.2946 H   0  0  0  0  0  0  0  0  0  0  0  0
    6.1324   -2.3012    3.0714 H   0  0  0  0  0  0  0  0  0  0  0  0
    4.0904    0.1398    3.8816 H   0  0  0  0  0  0  0  0  0  0  0  0
    2.7813   -0.7589    4.6425 H   0  0  0  0  0  0  0  0  0  0  0  0
    1.4683   -2.2881    2.7594 H   0  0  0  0  0  0  0  0  0  0  0  0
    1.1114   -1.4308    1.2463 H   0  0  0  0  0  0  0  0  0  0  0  0
   -1.0472   -2.3595    2.9316 H   0  0  0  0  0  0  0  0  0  0  0  0
   -1.3797   -1.2502    1.5920 H   0  0  0  0  0  0  0  0  0  0  0  0
   -5.3826    0.9696    4.0769 H   0  0  0  0  0  0  0  0  0  0  0  0
   -4.1024    0.0406    6.1961 H   0  0  0  0  0  0  0  0  0  0  0  0
   -1.6567   -0.8551    6.7939 H   0  0  0  0  0  0  0  0  0  0  0  0
   -0.5610   -1.3292    5.4678 H   0  0  0  0  0  0  0  0  0  0  0  0
   -1.8703   -2.4212    5.9889 H   0  0  0  0  0  0  0  0  0  0  0  0
   -0.4352    1.3810    3.2203 H   0  0  0  0  0  0  0  0  0  0  0  0
   -0.0180    0.9287    1.5457 H   0  0  0  0  0  0  0  0  0  0  0  0
    2.0753    1.3816    0.1362 H   0  0  0  0  0  0  0  0  0  0  0  0
    2.9159    3.3737   -1.0666 H   0  0  0  0  0  0  0  0  0  0  0  0
    3.6000    5.4312    0.2128 H   0  0  0  0  0  0  0  0  0  0  0  0
    2.5822    3.4723    3.8945 H   0  0  0  0  0  0  0  0  0  0  0  0
    2.0772   -2.4979    5.1416 H   0  0  0  0  0  0  0  0  0  0  0  0
    3.2778   -5.2518    5.7573 H   0  0  0  0  0  0  0  0  0  0  0  0
    1.9599   -4.9262    4.6150 H   0  0  0  0  0  0  0  0  0  0  0  0
    1.7004   -4.6511    6.3577 H   0  0  0  0  0  0  0  0  0  0  0  0
    4.4139   -3.2252    7.0066 H   0  0  0  0  0  0  0  0  0  0  0  0
    2.7989   -2.6900    7.5423 H   0  0  0  0  0  0  0  0  0  0  0  0
    3.8630   -1.5694    6.6570 H   0  0  0  0  0  0  0  0  0  0  0  0
  1  2  1  0
  1 33  1  0
  1 34  1  0
  1 35  1  0
  2  3  1  0
  3  4  1  0
  3 36  1  0
  3 37  1  0
  4  5  1  0
  4 38  1  0
  4 39  1  0
  5  6  1  0
  5 28  1  0
  6  7  1  0
  6 40  1  0
  6 41  1  0
  7  8  1  6
  7  9  1  0
  7 19  1  0
  9 10  1  0
  9 42  1  0
  9 43  1  0
 10 11  1  0
 10 18  1  0
 11 12  1  0
 11 44  1  0
 11 45  1  0
 12 13  1  0
 12 16  2  0
 13 14  1  0
 14 15  2  0
 14 46  1  0
 15 16  1  0
 15 47  1  0
 16 17  1  0
 17 48  1  0
 17 49  1  0
 17 50  1  0
 18 19  1  0
 18 51  1  0
 18 52  1  0
 19 20  1  1
 19 21  1  0
 21 22  2  0
 21 27  1  0
 22 23  1  0
 22 53  1  0
 23 24  2  0
 23 54  1  0
 24 25  1  0
 24 55  1  0
 25 26  1  0
 25 27  2  0
 27 56  1  0
 28 29  2  0
 28 30  1  0
 30 31  1  0
 30 32  1  0
 30 57  1  6
 31 58  1  0
 31 59  1  0
 31 60  1  0
 32 61  1  0
 32 62  1  0
 32 63  1  0
M  END

