
     RDKit          3D

 51 51  0  0  0  0  0  0  0  0999 V2000
    2.4401   -1.9801   -3.9990 C   0  0  0  0  0  0  0  0  0  0  0  0
    3.8906   -2.4482   -4.0498 C   0  0  0  0  0  0  0  0  0  0  0  0
    4.7031   -1.7677   -3.0547 N   0  0  0  0  0  0  0  0  0  0  0  0
    6.1179   -2.1439   -3.0068 C   0  0  1  0  0  0  0  0  0  0  0  0
    6.9195   -1.4155   -4.1083 C   0  0  0  0  0  0  0  0  0  0  0  0
    6.9366    0.1098   -3.9954 C   0  0  0  0  0  0  0  0  0  0  0  0
    6.6875   -1.8753   -1.6029 C   0  0  0  0  0  0  0  0  0  0  0  0
    6.2335   -2.8570   -0.5110 C   0  0  0  0  0  0  0  0  0  0  0  0
    6.9214   -4.2323   -0.5600 C   0  0  0  0  0  0  0  0  0  0  0  0
    8.3691   -4.1516   -0.3890 N   0  0  0  0  0  0  0  0  0  0  0  0
    8.8281   -3.9769    0.9911 C   0  0  0  0  0  0  0  0  0  0  0  0
    8.9137   -5.3083    1.7612 C   0  0  0  0  0  0  0  0  0  0  0  0
    9.7280   -6.3229    1.0908 N   0  0  0  0  0  0  0  0  0  0  0  0
   11.1980   -6.2747    1.2138 C   0  0  1  0  0  0  0  0  0  0  0  0
   11.6677   -5.7079    2.5571 C   0  0  0  0  0  0  0  0  0  0  0  0
   11.7771   -7.6875    1.0359 C   0  0  0  0  0  0  0  0  0  0  0  0
    9.2380   -6.5048   -0.2784 C   0  0  0  0  0  0  0  0  0  0  0  0
    9.1581   -5.1817   -1.0639 C   0  0  0  0  0  0  0  0  0  0  0  0
    1.8333   -2.4829   -4.7684 H   0  0  0  0  0  0  0  0  0  0  0  0
    2.3763   -0.8922   -4.1569 H   0  0  0  0  0  0  0  0  0  0  0  0
    1.9835   -2.2041   -3.0192 H   0  0  0  0  0  0  0  0  0  0  0  0
    4.3037   -2.2335   -5.0504 H   0  0  0  0  0  0  0  0  0  0  0  0
    3.9271   -3.5584   -3.9439 H   0  0  0  0  0  0  0  0  0  0  0  0
    4.2773   -1.8827   -2.1370 H   0  0  0  0  0  0  0  0  0  0  0  0
    6.2315   -3.2334   -3.2132 H   0  0  0  0  0  0  0  0  0  0  0  0
    6.5026   -1.7002   -5.0901 H   0  0  0  0  0  0  0  0  0  0  0  0
    7.9506   -1.8112   -4.0987 H   0  0  0  0  0  0  0  0  0  0  0  0
    5.9096    0.5013   -3.9359 H   0  0  0  0  0  0  0  0  0  0  0  0
    7.4310    0.5657   -4.8682 H   0  0  0  0  0  0  0  0  0  0  0  0
    7.4776    0.4503   -3.0978 H   0  0  0  0  0  0  0  0  0  0  0  0
    6.4126   -0.8478   -1.3106 H   0  0  0  0  0  0  0  0  0  0  0  0
    7.7877   -1.9113   -1.6468 H   0  0  0  0  0  0  0  0  0  0  0  0
    5.1415   -3.0235   -0.5586 H   0  0  0  0  0  0  0  0  0  0  0  0
    6.4115   -2.4009    0.4779 H   0  0  0  0  0  0  0  0  0  0  0  0
    6.7289   -4.6928   -1.5426 H   0  0  0  0  0  0  0  0  0  0  0  0
    6.4278   -4.8973    0.1821 H   0  0  0  0  0  0  0  0  0  0  0  0
    8.1593   -3.2747    1.5147 H   0  0  0  0  0  0  0  0  0  0  0  0
    9.8258   -3.4997    0.9692 H   0  0  0  0  0  0  0  0  0  0  0  0
    7.8945   -5.7251    1.8658 H   0  0  0  0  0  0  0  0  0  0  0  0
    9.2728   -5.1385    2.7852 H   0  0  0  0  0  0  0  0  0  0  0  0
   11.6447   -5.6308    0.4227 H   0  0  0  0  0  0  0  0  0  0  0  0
   11.2320   -6.2719    3.3983 H   0  0  0  0  0  0  0  0  0  0  0  0
   11.4169   -4.6445    2.6857 H   0  0  0  0  0  0  0  0  0  0  0  0
   12.7627   -5.7946    2.6272 H   0  0  0  0  0  0  0  0  0  0  0  0
   11.4168   -8.3461    1.8424 H   0  0  0  0  0  0  0  0  0  0  0  0
   12.8784   -7.6634    1.0642 H   0  0  0  0  0  0  0  0  0  0  0  0
   11.4844   -8.1422    0.0779 H   0  0  0  0  0  0  0  0  0  0  0  0
    8.2311   -6.9607   -0.2293 H   0  0  0  0  0  0  0  0  0  0  0  0
    9.8764   -7.2230   -0.8148 H   0  0  0  0  0  0  0  0  0  0  0  0
    8.7417   -5.3557   -2.0698 H   0  0  0  0  0  0  0  0  0  0  0  0
   10.1809   -4.7872   -1.2117 H   0  0  0  0  0  0  0  0  0  0  0  0
  1  2  1  0
  1 19  1  0
  1 20  1  0
  1 21  1  0
  2  3  1  0
  2 22  1  0
  2 23  1  0
  3  4  1  0
  3 24  1  0
  4  5  1  0
  4  7  1  0
  4 25  1  6
  5  6  1  0
  5 26  1  0
  5 27  1  0
  6 28  1  0
  6 29  1  0
  6 30  1  0
  7  8  1  0
  7 31  1  0
  7 32  1  0
  8  9  1  0
  8 33  1  0
  8 34  1  0
  9 10  1  0
  9 35  1  0
  9 36  1  0
 10 11  1  0
 10 18  1  0
 11 12  1  0
 11 37  1  0
 11 38  1  0
 12 13  1  0
 12 39  1  0
 12 40  1  0
 13 14  1  0
 13 17  1  0
 14 15  1  0
 14 16  1  0
 14 41  1  6
 15 42  1  0
 15 43  1  0
 15 44  1  0
 16 45  1  0
 16 46  1  0
 16 47  1  0
 17 18  1  0
 17 48  1  0
 17 49  1  0
 18 50  1  0
 18 51  1  0
M  END

