
     RDKit          3D

 50 53  0  0  0  0  0  0  0  0999 V2000
    1.3672    0.6547    0.0287 C   0  0  0  0  0  0  0  0  0  0  0  0
    2.7804    0.0967   -0.1453 C   0  0  0  0  0  0  0  0  0  0  0  0
    3.2043   -0.8522    0.9798 C   0  0  0  0  0  0  0  0  0  0  0  0
    4.6245   -1.4214    0.7977 C   0  0  0  0  0  0  0  0  0  0  0  0
    5.0500   -2.3783    1.8915 C   0  0  0  0  0  0  0  0  0  0  0  0
    4.8943   -3.7571    1.6863 C   0  0  0  0  0  0  0  0  0  0  0  0
    5.2314   -4.6918    2.6610 C   0  0  0  0  0  0  0  0  0  0  0  0
    5.7472   -4.2793    3.9006 C   0  0  0  0  0  0  0  0  0  0  0  0
    6.1053   -5.2145    4.9296 C   0  0  0  0  0  0  0  0  0  0  0  0
    6.6076   -4.7988    6.1273 C   0  0  0  0  0  0  0  0  0  0  0  0
    6.8047   -3.4015    6.4211 C   0  0  0  0  0  0  0  0  0  0  0  0
    7.3240   -2.9505    7.6638 C   0  0  0  0  0  0  0  0  0  0  0  0
    7.7495   -3.9073    8.7576 C   0  0  0  0  0  0  0  0  0  0  0  0
    9.1699   -4.4762    8.5758 C   0  0  0  0  0  0  0  0  0  0  0  0
    9.5937   -5.4251    9.7009 C   0  0  0  0  0  0  0  0  0  0  0  0
   11.0072   -5.9828    9.5272 C   0  0  0  0  0  0  0  0  0  0  0  0
    7.4796   -1.5717    7.8690 C   0  0  0  0  0  0  0  0  0  0  0  0
    7.1425   -0.6370    6.8944 C   0  0  0  0  0  0  0  0  0  0  0  0
    6.6267   -1.0495    5.6548 C   0  0  0  0  0  0  0  0  0  0  0  0
    6.2686   -0.1143    4.6257 C   0  0  0  0  0  0  0  0  0  0  0  0
    5.7662   -0.5300    3.4281 C   0  0  0  0  0  0  0  0  0  0  0  0
    5.5693   -1.9273    3.1342 C   0  0  0  0  0  0  0  0  0  0  0  0
    5.9227   -2.8818    4.1473 C   0  0  0  0  0  0  0  0  0  0  0  0
    6.4512   -2.4470    5.4080 C   0  0  0  0  0  0  0  0  0  0  0  0
    1.0951    1.3328   -0.7960 H   0  0  0  0  0  0  0  0  0  0  0  0
    1.2728    1.2212    0.9704 H   0  0  0  0  0  0  0  0  0  0  0  0
    0.6176   -0.1539    0.0559 H   0  0  0  0  0  0  0  0  0  0  0  0
    3.5022    0.9318   -0.2078 H   0  0  0  0  0  0  0  0  0  0  0  0
    2.8526   -0.4322   -1.1133 H   0  0  0  0  0  0  0  0  0  0  0  0
    2.4887   -1.6911    1.0463 H   0  0  0  0  0  0  0  0  0  0  0  0
    3.1394   -0.3278    1.9498 H   0  0  0  0  0  0  0  0  0  0  0  0
    5.3402   -0.5867    0.7123 H   0  0  0  0  0  0  0  0  0  0  0  0
    4.6686   -1.9510   -0.1688 H   0  0  0  0  0  0  0  0  0  0  0  0
    4.4990   -4.1047    0.7273 H   0  0  0  0  0  0  0  0  0  0  0  0
    5.0992   -5.7595    2.4659 H   0  0  0  0  0  0  0  0  0  0  0  0
    5.9645   -6.2809    4.7329 H   0  0  0  0  0  0  0  0  0  0  0  0
    6.8654   -5.5424    6.8823 H   0  0  0  0  0  0  0  0  0  0  0  0
    7.0340   -4.7422    8.8429 H   0  0  0  0  0  0  0  0  0  0  0  0
    7.7051   -3.3778    9.7242 H   0  0  0  0  0  0  0  0  0  0  0  0
    9.8854   -3.6372    8.5095 H   0  0  0  0  0  0  0  0  0  0  0  0
    9.2352   -5.0005    7.6059 H   0  0  0  0  0  0  0  0  0  0  0  0
    8.8721   -6.2604    9.7631 H   0  0  0  0  0  0  0  0  0  0  0  0
    9.5212   -4.8963   10.6689 H   0  0  0  0  0  0  0  0  0  0  0  0
   11.1019   -6.5491    8.5855 H   0  0  0  0  0  0  0  0  0  0  0  0
   11.2792   -6.6609   10.3519 H   0  0  0  0  0  0  0  0  0  0  0  0
   11.7566   -5.1740    9.5004 H   0  0  0  0  0  0  0  0  0  0  0  0
    7.8749   -1.2241    8.8280 H   0  0  0  0  0  0  0  0  0  0  0  0
    7.2747    0.4307    7.0895 H   0  0  0  0  0  0  0  0  0  0  0  0
    6.4093    0.9521    4.8225 H   0  0  0  0  0  0  0  0  0  0  0  0
    5.5084    0.2135    2.6731 H   0  0  0  0  0  0  0  0  0  0  0  0
  1  2  1  0
  1 25  1  0
  1 26  1  0
  1 27  1  0
  2  3  1  0
  2 28  1  0
  2 29  1  0
  3  4  1  0
  3 30  1  0
  3 31  1  0
  4  5  1  0
  4 32  1  0
  4 33  1  0
  5  6  2  0
  5 22  1  0
  6  7  1  0
  6 34  1  0
  7  8  2  0
  7 35  1  0
  8  9  1  0
  8 23  1  0
  9 10  2  0
  9 36  1  0
 10 11  1  0
 10 37  1  0
 11 12  2  0
 11 24  1  0
 12 13  1  0
 12 17  1  0
 13 14  1  0
 13 38  1  0
 13 39  1  0
 14 15  1  0
 14 40  1  0
 14 41  1  0
 15 16  1  0
 15 42  1  0
 15 43  1  0
 16 44  1  0
 16 45  1  0
 16 46  1  0
 17 18  2  0
 17 47  1  0
 18 19  1  0
 18 48  1  0
 19 20  2  0
 19 24  1  0
 20 21  1  0
 20 49  1  0
 21 22  2  0
 21 50  1  0
 22 23  1  0
 23 24  2  0
M  END

