
     RDKit          3D

 45 48  0  0  0  0  0  0  0  0999 V2000
    1.8394    0.2502   -0.8950 O   0  0  0  0  0  0  0  0  0  0  0  0
    3.0300    0.2260   -0.5975 C   0  0  0  0  0  0  0  0  0  0  0  0
    3.4946    0.7304    0.6051 N   0  0  0  0  0  0  0  0  0  0  0  0
    2.6009    1.4430    1.4925 C   0  0  0  0  0  0  0  0  0  0  0  0
    2.6147    2.9601    1.3162 C   0  0  2  0  0  0  0  0  0  0  0  0
    2.1941    3.4593   -0.0618 C   0  0  0  0  0  0  0  0  0  0  0  0
    2.2307    4.8805   -0.1005 O   0  0  0  0  0  0  0  0  0  0  0  0
    3.3584    5.4378    0.4269 C   0  0  0  0  0  0  0  0  0  0  0  0
    3.6555    6.7738    0.1372 C   0  0  0  0  0  0  0  0  0  0  0  0
    4.8062    7.3692    0.6572 C   0  0  0  0  0  0  0  0  0  0  0  0
    5.6735    6.6279    1.4683 C   0  0  0  0  0  0  0  0  0  0  0  0
    5.3775    5.2974    1.7714 C   0  0  0  0  0  0  0  0  0  0  0  0
    4.2218    4.6985    1.2607 C   0  0  0  0  0  0  0  0  0  0  0  0
    3.9499    3.3972    1.5888 O   0  0  0  0  0  0  0  0  0  0  0  0
    3.9907   -0.2950   -1.4350 N   0  0  0  0  0  0  0  0  0  0  0  0
    3.6022   -1.0709   -2.6222 C   0  0  1  0  0  0  0  0  0  0  0  0
    4.8934   -1.0041   -3.4681 C   0  0  0  0  0  0  0  0  0  0  0  0
    6.0350   -0.8548   -2.4236 C   0  0  0  0  0  0  0  0  0  0  0  0
    5.3069   -0.8357   -1.0584 C   0  0  2  0  0  0  0  0  0  0  0  0
    5.0999   -2.2333   -0.4387 C   0  0  0  0  0  0  0  0  0  0  0  0
    4.3529   -3.1983   -1.3772 C   0  0  2  0  0  0  0  0  0  0  0  0
    5.3286   -3.7752   -2.2442 O   0  0  0  0  0  0  0  0  0  0  0  0
    3.2237   -2.4934   -2.1608 C   0  0  0  0  0  0  0  0  0  0  0  0
    4.4794    0.9507    0.6928 H   0  0  0  0  0  0  0  0  0  0  0  0
    2.8776    1.2248    2.5370 H   0  0  0  0  0  0  0  0  0  0  0  0
    1.5844    1.0653    1.3178 H   0  0  0  0  0  0  0  0  0  0  0  0
    1.9340    3.4073    2.0670 H   0  0  0  0  0  0  0  0  0  0  0  0
    1.1671    3.1526   -0.2985 H   0  0  0  0  0  0  0  0  0  0  0  0
    2.8657    3.0461   -0.8347 H   0  0  0  0  0  0  0  0  0  0  0  0
    2.9663    7.3233   -0.5078 H   0  0  0  0  0  0  0  0  0  0  0  0
    5.0283    8.4128    0.4225 H   0  0  0  0  0  0  0  0  0  0  0  0
    6.5783    7.0871    1.8732 H   0  0  0  0  0  0  0  0  0  0  0  0
    6.0266    4.6982    2.4139 H   0  0  0  0  0  0  0  0  0  0  0  0
    2.7389   -0.5958   -3.1048 H   0  0  0  0  0  0  0  0  0  0  0  0
    4.8566   -0.1261   -4.1300 H   0  0  0  0  0  0  0  0  0  0  0  0
    5.0179   -1.8962   -4.0956 H   0  0  0  0  0  0  0  0  0  0  0  0
    6.5717    0.0946   -2.5690 H   0  0  0  0  0  0  0  0  0  0  0  0
    6.7627   -1.6740   -2.4778 H   0  0  0  0  0  0  0  0  0  0  0  0
    5.8237   -0.1819   -0.3396 H   0  0  0  0  0  0  0  0  0  0  0  0
    4.5205   -2.1091    0.4909 H   0  0  0  0  0  0  0  0  0  0  0  0
    6.0629   -2.6944   -0.1670 H   0  0  0  0  0  0  0  0  0  0  0  0
    3.9013   -3.9985   -0.7579 H   0  0  0  0  0  0  0  0  0  0  0  0
    4.8780   -4.3911   -2.8362 H   0  0  0  0  0  0  0  0  0  0  0  0
    2.3296   -2.4049   -1.5222 H   0  0  0  0  0  0  0  0  0  0  0  0
    2.9320   -3.1205   -3.0226 H   0  0  0  0  0  0  0  0  0  0  0  0
  1  2  2  0
  2  3  1  0
  2 15  1  0
  3  4  1  0
  3 24  1  0
  4  5  1  0
  4 25  1  0
  4 26  1  0
  5  6  1  0
  5 14  1  0
  5 27  1  1
  6  7  1  0
  6 28  1  0
  6 29  1  0
  7  8  1  0
  8  9  2  0
  8 13  1  0
  9 10  1  0
  9 30  1  0
 10 11  2  0
 10 31  1  0
 11 12  1  0
 11 32  1  0
 12 13  2  0
 12 33  1  0
 13 14  1  0
 15 16  1  0
 15 19  1  0
 16 17  1  0
 16 23  1  0
 16 34  1  6
 17 18  1  0
 17 35  1  0
 17 36  1  0
 18 19  1  0
 18 37  1  0
 18 38  1  0
 19 20  1  0
 19 39  1  1
 20 21  1  0
 20 40  1  0
 20 41  1  0
 21 22  1  0
 21 23  1  0
 21 42  1  1
 22 43  1  0
 23 44  1  0
 23 45  1  0
M  END

