
     RDKit          3D

 44 46  0  0  0  0  0  0  0  0999 V2000
    7.5970    4.6343    1.3718 C   0  0  0  0  0  0  0  0  0  0  0  0
    6.8467    3.5026    0.9949 O   0  0  0  0  0  0  0  0  0  0  0  0
    6.2477    3.4774   -0.2225 C   0  0  0  0  0  0  0  0  0  0  0  0
    6.3110    4.5150   -1.1635 C   0  0  0  0  0  0  0  0  0  0  0  0
    5.6502    4.3754   -2.3902 C   0  0  0  0  0  0  0  0  0  0  0  0
    4.9202    3.2262   -2.7162 C   0  0  0  0  0  0  0  0  0  0  0  0
    4.2269    3.1027   -4.0676 C   0  0  0  0  0  0  0  0  0  0  0  0
    4.8994    2.3063   -5.1049 N   0  0  0  0  0  0  0  0  0  0  0  0
    6.2081    2.8415   -5.4498 C   0  0  0  0  0  0  0  0  0  0  0  0
    6.9364    2.0651   -6.5232 C   0  0  0  0  0  0  0  0  0  0  0  0
    8.0791    2.6184   -7.1202 C   0  0  0  0  0  0  0  0  0  0  0  0
    8.7965    1.9093   -8.0819 C   0  0  0  0  0  0  0  0  0  0  0  0
   10.0264    2.4962   -8.7259 C   0  0  1  0  0  0  0  0  0  0  0  0
   10.2723    3.7517   -8.3133 F   0  0  0  0  0  0  0  0  0  0  0  0
   11.1249    1.7647   -8.4533 F   0  0  0  0  0  0  0  0  0  0  0  0
    9.9135    2.5310  -10.0681 F   0  0  0  0  0  0  0  0  0  0  0  0
    8.3791    0.6232   -8.4565 C   0  0  0  0  0  0  0  0  0  0  0  0
    7.2497    0.0712   -7.8625 C   0  0  0  0  0  0  0  0  0  0  0  0
    6.5162    0.7812   -6.8964 C   0  0  0  0  0  0  0  0  0  0  0  0
    5.2705    0.1942   -6.2829 C   0  0  0  0  0  0  0  0  0  0  0  0
    4.9030    0.8559   -4.9391 C   0  0  2  0  0  0  0  0  0  0  0  0
    3.5456    0.3123   -4.4998 C   0  0  0  0  0  0  0  0  0  0  0  0
    3.3717   -0.3976   -3.5394 O   0  0  0  0  0  0  0  0  0  0  0  0
    2.5440    0.6653   -5.3272 O   0  0  0  0  0  0  0  0  0  0  0  0
    4.8622    2.1983   -1.7530 C   0  0  0  0  0  0  0  0  0  0  0  0
    5.5138    2.3178   -0.5302 C   0  0  0  0  0  0  0  0  0  0  0  0
    7.9849    4.4324    2.3794 H   0  0  0  0  0  0  0  0  0  0  0  0
    6.9764    5.5484    1.4052 H   0  0  0  0  0  0  0  0  0  0  0  0
    8.4491    4.8102    0.6902 H   0  0  0  0  0  0  0  0  0  0  0  0
    6.8630    5.4319   -0.9559 H   0  0  0  0  0  0  0  0  0  0  0  0
    5.7031    5.1998   -3.1084 H   0  0  0  0  0  0  0  0  0  0  0  0
    4.0949    4.1146   -4.4864 H   0  0  0  0  0  0  0  0  0  0  0  0
    3.2126    2.6972   -3.9366 H   0  0  0  0  0  0  0  0  0  0  0  0
    6.8789    2.9002   -4.5624 H   0  0  0  0  0  0  0  0  0  0  0  0
    6.0710    3.8840   -5.7881 H   0  0  0  0  0  0  0  0  0  0  0  0
    8.4113    3.6176   -6.8302 H   0  0  0  0  0  0  0  0  0  0  0  0
    8.9380    0.0612   -9.2079 H   0  0  0  0  0  0  0  0  0  0  0  0
    6.9230   -0.9318   -8.1510 H   0  0  0  0  0  0  0  0  0  0  0  0
    5.3890   -0.8926   -6.1421 H   0  0  0  0  0  0  0  0  0  0  0  0
    4.4241    0.3432   -6.9739 H   0  0  0  0  0  0  0  0  0  0  0  0
    5.6136    0.5135   -4.1587 H   0  0  0  0  0  0  0  0  0  0  0  0
    1.7360    0.2491   -4.9790 H   0  0  0  0  0  0  0  0  0  0  0  0
    4.2941    1.2875   -1.9575 H   0  0  0  0  0  0  0  0  0  0  0  0
    5.4660    1.5224    0.2164 H   0  0  0  0  0  0  0  0  0  0  0  0
  1  2  1  0
  1 27  1  0
  1 28  1  0
  1 29  1  0
  2  3  1  0
  3  4  2  0
  3 26  1  0
  4  5  1  0
  4 30  1  0
  5  6  2  0
  5 31  1  0
  6  7  1  0
  6 25  1  0
  7  8  1  0
  7 32  1  0
  7 33  1  0
  8  9  1  0
  8 21  1  0
  9 10  1  0
  9 34  1  0
  9 35  1  0
 10 11  2  0
 10 19  1  0
 11 12  1  0
 11 36  1  0
 12 13  1  0
 12 17  2  0
 13 14  1  1
 13 15  1  0
 13 16  1  0
 17 18  1  0
 17 37  1  0
 18 19  2  0
 18 38  1  0
 19 20  1  0
 20 21  1  0
 20 39  1  0
 20 40  1  0
 21 22  1  0
 21 41  1  1
 22 23  2  0
 22 24  1  0
 24 42  1  0
 25 26  2  0
 25 43  1  0
 26 44  1  0
M  END

