
     RDKit          3D

 46 48  0  0  0  0  0  0  0  0999 V2000
    4.7995    2.7828    1.9147 C   0  0  0  0  0  0  0  0  0  0  0  0
    4.2697    2.0711    0.8277 O   0  0  0  0  0  0  0  0  0  0  0  0
    5.2340    1.3477    0.1014 C   0  0  0  0  0  0  0  0  0  0  0  0
    4.5724    0.6884   -1.1219 C   0  0  2  0  0  0  0  0  0  0  0  0
    3.5538    0.4162   -0.7782 H   0  0  0  0  0  0  0  0  0  0  0  0
    5.2728   -0.6407   -1.4788 C   0  0  2  0  0  0  0  0  0  0  0  0
    4.9479   -1.3687   -0.7163 H   0  0  0  0  0  0  0  0  0  0  0  0
    6.8070   -0.5557   -1.4361 C   0  0  0  0  0  0  0  0  0  0  0  0
    7.4171    0.4420   -1.7854 O   0  0  0  0  0  0  0  0  0  0  0  0
    7.4086   -1.7154   -1.0113 N   0  0  0  0  0  0  0  0  0  0  0  0
    8.7839   -2.0281   -0.9179 C   0  0  0  0  0  0  0  0  0  0  0  0
    9.8084   -1.1299   -1.2678 C   0  0  0  0  0  0  0  0  0  0  0  0
   11.1398   -1.5238   -1.1319 C   0  0  0  0  0  0  0  0  0  0  0  0
   11.4820   -2.7933   -0.6624 C   0  0  0  0  0  0  0  0  0  0  0  0
   10.4543   -3.6987   -0.3310 C   0  0  0  0  0  0  0  0  0  0  0  0
    9.1200   -3.3102   -0.4553 C   0  0  0  0  0  0  0  0  0  0  0  0
   10.7269   -4.9608    0.1161 O   0  0  0  0  0  0  0  0  0  0  0  0
   12.0655   -5.3850   -0.0998 C   0  0  0  0  0  0  0  0  0  0  0  0
   13.0367   -4.2751    0.2670 C   0  0  0  0  0  0  0  0  0  0  0  0
   12.8024   -3.1310   -0.5374 O   0  0  0  0  0  0  0  0  0  0  0  0
    4.8090   -1.1312   -2.8611 C   0  0  0  0  0  0  0  0  0  0  0  0
    5.1498   -0.0898   -3.9197 C   0  0  0  0  0  0  0  0  0  0  0  0
    4.6754    1.3163   -3.5810 C   0  0  0  0  0  0  0  0  0  0  0  0
    4.5178    2.1374   -4.4713 O   0  0  0  0  0  0  0  0  0  0  0  0
    4.4258    1.6106   -2.2569 N   0  0  0  0  0  0  0  0  0  0  0  0
    3.8451    2.9174   -1.9658 C   0  0  0  0  0  0  0  0  0  0  0  0
    3.9687    3.3029    2.4135 H   0  0  0  0  0  0  0  0  0  0  0  0
    5.5477    3.5351    1.5936 H   0  0  0  0  0  0  0  0  0  0  0  0
    5.2884    2.1119    2.6507 H   0  0  0  0  0  0  0  0  0  0  0  0
    5.6683    0.5549    0.7473 H   0  0  0  0  0  0  0  0  0  0  0  0
    6.0714    1.9914   -0.2248 H   0  0  0  0  0  0  0  0  0  0  0  0
    6.7854   -2.4638   -0.7329 H   0  0  0  0  0  0  0  0  0  0  0  0
    9.5532   -0.1379   -1.6306 H   0  0  0  0  0  0  0  0  0  0  0  0
   11.9498   -0.8370   -1.3871 H   0  0  0  0  0  0  0  0  0  0  0  0
    8.3520   -4.0406   -0.1877 H   0  0  0  0  0  0  0  0  0  0  0  0
   12.2048   -5.6693   -1.1598 H   0  0  0  0  0  0  0  0  0  0  0  0
   12.2237   -6.2752    0.5265 H   0  0  0  0  0  0  0  0  0  0  0  0
   14.0770   -4.5857    0.0905 H   0  0  0  0  0  0  0  0  0  0  0  0
   12.9224   -4.0175    1.3373 H   0  0  0  0  0  0  0  0  0  0  0  0
    3.7184   -1.2969   -2.8249 H   0  0  0  0  0  0  0  0  0  0  0  0
    5.2695   -2.1034   -3.1014 H   0  0  0  0  0  0  0  0  0  0  0  0
    4.7052   -0.3339   -4.8953 H   0  0  0  0  0  0  0  0  0  0  0  0
    6.2388   -0.0294   -4.0771 H   0  0  0  0  0  0  0  0  0  0  0  0
    3.5594    3.3762   -2.9189 H   0  0  0  0  0  0  0  0  0  0  0  0
    4.5637    3.5816   -1.4586 H   0  0  0  0  0  0  0  0  0  0  0  0
    2.9694    2.8083   -1.3081 H   0  0  0  0  0  0  0  0  0  0  0  0
  1  2  1  0
  1 27  1  0
  1 28  1  0
  1 29  1  0
  2  3  1  0
  3  4  1  0
  3 30  1  0
  3 31  1  0
  4  5  1  1
  4  6  1  0
  4 25  1  0
  6  7  1  1
  6  8  1  0
  6 21  1  0
  8  9  2  0
  8 10  1  0
 10 11  1  0
 10 32  1  0
 11 12  2  0
 11 16  1  0
 12 13  1  0
 12 33  1  0
 13 14  2  0
 13 34  1  0
 14 15  1  0
 14 20  1  0
 15 16  2  0
 15 17  1  0
 16 35  1  0
 17 18  1  0
 18 19  1  0
 18 36  1  0
 18 37  1  0
 19 20  1  0
 19 38  1  0
 19 39  1  0
 21 22  1  0
 21 40  1  0
 21 41  1  0
 22 23  1  0
 22 42  1  0
 22 43  1  0
 23 24  2  0
 23 25  1  0
 25 26  1  0
 26 44  1  0
 26 45  1  0
 26 46  1  0
M  END

