
     RDKit          3D

 41 42  0  0  0  0  0  0  0  0999 V2000
    1.2753   -0.0021    0.3641 C   0  0  0  0  0  0  0  0  0  0  0  0
    2.7138   -0.0648    0.1297 N   0  0  0  0  0  0  0  0  0  0  0  0
    3.2447    1.0009   -0.7097 C   0  0  0  0  0  0  0  0  0  0  0  0
    3.5190    2.3220   -0.0041 C   0  0  0  0  0  0  0  0  0  0  0  0
    3.5440    2.3997    1.3928 C   0  0  0  0  0  0  0  0  0  0  0  0
    3.7909    3.6089    2.0489 C   0  0  0  0  0  0  0  0  0  0  0  0
    4.0214    4.7676    1.3071 C   0  0  0  0  0  0  0  0  0  0  0  0
    4.0104    4.6987   -0.0886 C   0  0  0  0  0  0  0  0  0  0  0  0
    3.7641    3.4930   -0.7604 C   0  0  0  0  0  0  0  0  0  0  0  0
    3.8146    3.4666   -2.2748 C   0  0  0  0  0  0  0  0  0  0  0  0
    4.9865    2.7265   -2.7561 N   0  0  0  0  0  0  0  0  0  0  0  0
    3.3586   -1.2154    0.5230 C   0  0  0  0  0  0  0  0  0  0  0  0
    2.7335   -2.1525    1.0016 O   0  0  0  0  0  0  0  0  0  0  0  0
    4.8972   -1.3606    0.3773 C   0  0  1  0  0  0  0  0  0  0  0  0
    5.4033   -2.2443    1.5257 C   0  0  0  0  0  0  0  0  0  0  0  0
    5.2811   -1.9413   -1.0091 C   0  0  0  0  0  0  0  0  0  0  0  0
    6.6832   -1.3594   -1.2323 C   0  0  0  0  0  0  0  0  0  0  0  0
    6.5750    0.0175   -0.5635 C   0  0  0  0  0  0  0  0  0  0  0  0
    5.5683   -0.0983    0.4440 O   0  0  0  0  0  0  0  0  0  0  0  0
    0.9871    1.0331    0.6016 H   0  0  0  0  0  0  0  0  0  0  0  0
    1.0106   -0.6626    1.1972 H   0  0  0  0  0  0  0  0  0  0  0  0
    0.7058   -0.3292   -0.5258 H   0  0  0  0  0  0  0  0  0  0  0  0
    2.5046    1.1769   -1.5118 H   0  0  0  0  0  0  0  0  0  0  0  0
    4.1502    0.6818   -1.2301 H   0  0  0  0  0  0  0  0  0  0  0  0
    3.3740    1.4909    1.9721 H   0  0  0  0  0  0  0  0  0  0  0  0
    3.8049    3.6409    3.1415 H   0  0  0  0  0  0  0  0  0  0  0  0
    4.2129    5.7199    1.8083 H   0  0  0  0  0  0  0  0  0  0  0  0
    4.1961    5.6032   -0.6761 H   0  0  0  0  0  0  0  0  0  0  0  0
    3.7667    4.5115   -2.6433 H   0  0  0  0  0  0  0  0  0  0  0  0
    2.9174    2.9630   -2.6751 H   0  0  0  0  0  0  0  0  0  0  0  0
    5.8409    3.2085   -2.4741 H   0  0  0  0  0  0  0  0  0  0  0  0
    4.9937    2.6902   -3.7761 H   0  0  0  0  0  0  0  0  0  0  0  0
    4.8577   -3.1953    1.5577 H   0  0  0  0  0  0  0  0  0  0  0  0
    5.2563   -1.7261    2.4847 H   0  0  0  0  0  0  0  0  0  0  0  0
    6.4800   -2.4375    1.4048 H   0  0  0  0  0  0  0  0  0  0  0  0
    4.5870   -1.5812   -1.7858 H   0  0  0  0  0  0  0  0  0  0  0  0
    5.2462   -3.0397   -1.0177 H   0  0  0  0  0  0  0  0  0  0  0  0
    6.9557   -1.2907   -2.2961 H   0  0  0  0  0  0  0  0  0  0  0  0
    7.4436   -1.9809   -0.7342 H   0  0  0  0  0  0  0  0  0  0  0  0
    6.2738    0.7946   -1.2911 H   0  0  0  0  0  0  0  0  0  0  0  0
    7.5181    0.3405   -0.0919 H   0  0  0  0  0  0  0  0  0  0  0  0
  1  2  1  0
  1 20  1  0
  1 21  1  0
  1 22  1  0
  2  3  1  0
  2 12  1  0
  3  4  1  0
  3 23  1  0
  3 24  1  0
  4  5  2  0
  4  9  1  0
  5  6  1  0
  5 25  1  0
  6  7  2  0
  6 26  1  0
  7  8  1  0
  7 27  1  0
  8  9  2  0
  8 28  1  0
  9 10  1  0
 10 11  1  0
 10 29  1  0
 10 30  1  0
 11 31  1  0
 11 32  1  0
 12 13  2  0
 14 12  1  6
 14 15  1  0
 14 16  1  0
 14 19  1  0
 15 33  1  0
 15 34  1  0
 15 35  1  0
 16 17  1  0
 16 36  1  0
 16 37  1  0
 17 18  1  0
 17 38  1  0
 17 39  1  0
 18 19  1  0
 18 40  1  0
 18 41  1  0
M  END

