
     RDKit          3D

108117  0  0  0  0  0  0  0  0999 V2000
    8.5555    2.3163   -1.6699 C   0  0  0  0  0  0  0  0  0  0  0  0
    8.1149    1.9589   -0.2313 C   0  0  2  0  0  0  0  0  0  0  0  0
    8.4486    3.1355    0.7151 C   0  0  0  0  0  0  0  0  0  0  0  0
    8.9225    0.7311    0.2266 C   0  0  0  0  0  0  0  0  0  0  0  0
    6.5962    1.6963   -0.2064 C   0  0  0  0  0  0  0  0  0  0  0  0
    5.7002    2.7141   -0.6001 C   0  0  0  0  0  0  0  0  0  0  0  0
    4.3128    2.5595   -0.5926 C   0  0  0  0  0  0  0  0  0  0  0  0
    3.7694    1.3395   -0.1666 C   0  0  0  0  0  0  0  0  0  0  0  0
    4.6538    0.2865    0.1921 C   0  0  0  0  0  0  0  0  0  0  0  0
    6.0414    0.4709    0.1805 C   0  0  0  0  0  0  0  0  0  0  0  0
    3.8373   -0.8774    0.4796 C   0  0  0  0  0  0  0  0  0  0  0  0
    4.1155   -2.1914    0.8627 C   0  0  0  0  0  0  0  0  0  0  0  0
    3.0677   -3.1145    1.0398 C   0  0  0  0  0  0  0  0  0  0  0  0
    3.3186   -4.5712    1.4860 C   0  0  2  0  0  0  0  0  0  0  0  0
    4.8152   -4.8668    1.6940 C   0  0  0  0  0  0  0  0  0  0  0  0
    2.7840   -5.5440    0.4095 C   0  0  0  0  0  0  0  0  0  0  0  0
    2.5876   -4.8330    2.8233 C   0  0  0  0  0  0  0  0  0  0  0  0
    1.7497   -2.6796    0.7939 C   0  0  0  0  0  0  0  0  0  0  0  0
    1.4140   -1.3682    0.3941 C   0  0  0  0  0  0  0  0  0  0  0  0
    2.4988   -0.4846    0.2797 C   0  0  0  0  0  0  0  0  0  0  0  0
    2.4355    0.8665   -0.0649 N   0  0  0  0  0  0  0  0  0  0  0  0
    1.2078    1.5426   -0.1711 C   0  0  0  0  0  0  0  0  0  0  0  0
    1.1589    2.9380   -0.2985 C   0  0  0  0  0  0  0  0  0  0  0  0
   -0.0653    3.5973   -0.4796 C   0  0  0  0  0  0  0  0  0  0  0  0
   -0.0807    5.0684   -0.7017 C   0  0  0  0  0  0  0  0  0  0  0  0
    0.8961    5.6956   -1.5004 C   0  0  0  0  0  0  0  0  0  0  0  0
    0.9070    7.0754   -1.7093 C   0  0  0  0  0  0  0  0  0  0  0  0
   -0.0713    7.8784   -1.1158 C   0  0  0  0  0  0  0  0  0  0  0  0
   -1.0558    7.2915   -0.3187 C   0  0  0  0  0  0  0  0  0  0  0  0
   -1.0482    5.9126   -0.1282 C   0  0  0  0  0  0  0  0  0  0  0  0
   -2.0089    5.3904    0.6590 F   0  0  0  0  0  0  0  0  0  0  0  0
   -1.2555    2.8628   -0.4709 C   0  0  0  0  0  0  0  0  0  0  0  0
   -1.2352    1.4819   -0.2361 C   0  0  0  0  0  0  0  0  0  0  0  0
    0.0017    0.7710   -0.1163 C   0  0  0  0  0  0  0  0  0  0  0  0
    0.0292   -0.7669    0.0576 B   0  0  0  0  0  0  0  0  0  0  0  0
   -1.3300   -1.4808   -0.1273 C   0  0  0  0  0  0  0  0  0  0  0  0
   -1.6149   -2.8651   -0.2264 C   0  0  0  0  0  0  0  0  0  0  0  0
   -2.9142   -3.3863   -0.3409 C   0  0  0  0  0  0  0  0  0  0  0  0
   -3.1978   -4.8989   -0.4600 C   0  0  2  0  0  0  0  0  0  0  0  0
   -3.9373   -5.1806   -1.7889 C   0  0  0  0  0  0  0  0  0  0  0  0
   -4.0806   -5.3546    0.7251 C   0  0  0  0  0  0  0  0  0  0  0  0
   -1.9086   -5.7402   -0.4453 C   0  0  0  0  0  0  0  0  0  0  0  0
   -3.9998   -2.4814   -0.3385 C   0  0  0  0  0  0  0  0  0  0  0  0
   -3.7756   -1.1103   -0.2559 C   0  0  0  0  0  0  0  0  0  0  0  0
   -4.6322    0.0623   -0.1950 C   0  0  0  0  0  0  0  0  0  0  0  0
   -6.0199    0.2071   -0.1676 C   0  0  0  0  0  0  0  0  0  0  0  0
   -6.6091    1.4728   -0.0162 C   0  0  0  0  0  0  0  0  0  0  0  0
   -8.1453    1.6086    0.0027 C   0  0  1  0  0  0  0  0  0  0  0  0
   -8.5998    3.0686    0.1817 C   0  0  0  0  0  0  0  0  0  0  0  0
   -8.7230    1.0853   -1.3328 C   0  0  0  0  0  0  0  0  0  0  0  0
   -8.7237    0.7782    1.1720 C   0  0  0  0  0  0  0  0  0  0  0  0
   -5.7437    2.5733    0.1325 C   0  0  0  0  0  0  0  0  0  0  0  0
   -4.3480    2.4595    0.1039 C   0  0  0  0  0  0  0  0  0  0  0  0
   -3.7796    1.1974   -0.0935 C   0  0  0  0  0  0  0  0  0  0  0  0
   -2.4316    0.7559   -0.1441 N   0  0  0  0  0  0  0  0  0  0  0  0
   -2.4467   -0.6369   -0.1834 C   0  0  0  0  0  0  0  0  0  0  0  0
    9.6404    2.5104   -1.7041 H   0  0  0  0  0  0  0  0  0  0  0  0
    8.3347    1.4920   -2.3665 H   0  0  0  0  0  0  0  0  0  0  0  0
    8.0454    3.2166   -2.0450 H   0  0  0  0  0  0  0  0  0  0  0  0
    7.9326    4.0612    0.4177 H   0  0  0  0  0  0  0  0  0  0  0  0
    9.5319    3.3411    0.7086 H   0  0  0  0  0  0  0  0  0  0  0  0
    8.1516    2.9054    1.7507 H   0  0  0  0  0  0  0  0  0  0  0  0
    8.6731    0.4369    1.2582 H   0  0  0  0  0  0  0  0  0  0  0  0
    9.9992    0.9614    0.2001 H   0  0  0  0  0  0  0  0  0  0  0  0
    8.7554   -0.1386   -0.4279 H   0  0  0  0  0  0  0  0  0  0  0  0
    6.0944    3.6753   -0.9373 H   0  0  0  0  0  0  0  0  0  0  0  0
    3.7023    3.3838   -0.9487 H   0  0  0  0  0  0  0  0  0  0  0  0
    6.6784   -0.3653    0.4690 H   0  0  0  0  0  0  0  0  0  0  0  0
    5.1521   -2.4874    1.0246 H   0  0  0  0  0  0  0  0  0  0  0  0
    5.3952   -4.7275    0.7681 H   0  0  0  0  0  0  0  0  0  0  0  0
    5.2566   -4.2278    2.4748 H   0  0  0  0  0  0  0  0  0  0  0  0
    4.9479   -5.9132    2.0112 H   0  0  0  0  0  0  0  0  0  0  0  0
    3.2903   -5.3822   -0.5555 H   0  0  0  0  0  0  0  0  0  0  0  0
    1.7029   -5.4210    0.2441 H   0  0  0  0  0  0  0  0  0  0  0  0
    2.9564   -6.5897    0.7139 H   0  0  0  0  0  0  0  0  0  0  0  0
    1.5012   -4.6806    2.7343 H   0  0  0  0  0  0  0  0  0  0  0  0
    2.9553   -4.1581    3.6127 H   0  0  0  0  0  0  0  0  0  0  0  0
    2.7528   -5.8708    3.1575 H   0  0  0  0  0  0  0  0  0  0  0  0
    0.9359   -3.3925    0.9320 H   0  0  0  0  0  0  0  0  0  0  0  0
    2.0600    3.5336   -0.2200 H   0  0  0  0  0  0  0  0  0  0  0  0
    1.6482    5.0710   -1.9873 H   0  0  0  0  0  0  0  0  0  0  0  0
    1.6759    7.5224   -2.3435 H   0  0  0  0  0  0  0  0  0  0  0  0
   -0.0731    8.9595   -1.2732 H   0  0  0  0  0  0  0  0  0  0  0  0
   -1.8341    7.8825    0.1680 H   0  0  0  0  0  0  0  0  0  0  0  0
   -2.1872    3.3717   -0.6790 H   0  0  0  0  0  0  0  0  0  0  0  0
   -0.7725   -3.5537   -0.2256 H   0  0  0  0  0  0  0  0  0  0  0  0
   -3.3271   -4.8722   -2.6526 H   0  0  0  0  0  0  0  0  0  0  0  0
   -4.8961   -4.6431   -1.8487 H   0  0  0  0  0  0  0  0  0  0  0  0
   -4.1532   -6.2572   -1.8907 H   0  0  0  0  0  0  0  0  0  0  0  0
   -4.2972   -6.4334    0.6533 H   0  0  0  0  0  0  0  0  0  0  0  0
   -5.0450   -4.8244    0.7491 H   0  0  0  0  0  0  0  0  0  0  0  0
   -3.5751   -5.1718    1.6867 H   0  0  0  0  0  0  0  0  0  0  0  0
   -2.1605   -6.8087   -0.5353 H   0  0  0  0  0  0  0  0  0  0  0  0
   -1.2415   -5.4865   -1.2839 H   0  0  0  0  0  0  0  0  0  0  0  0
   -1.3446   -5.6131    0.4920 H   0  0  0  0  0  0  0  0  0  0  0  0
   -5.0251   -2.8529   -0.4047 H   0  0  0  0  0  0  0  0  0  0  0  0
   -6.6427   -0.6865   -0.2518 H   0  0  0  0  0  0  0  0  0  0  0  0
   -9.7001    3.1189    0.1820 H   0  0  0  0  0  0  0  0  0  0  0  0
   -8.2503    3.4948    1.1351 H   0  0  0  0  0  0  0  0  0  0  0  0
   -8.2398    3.7143   -0.6346 H   0  0  0  0  0  0  0  0  0  0  0  0
   -9.8224    1.1697   -1.3380 H   0  0  0  0  0  0  0  0  0  0  0  0
   -8.3327    1.6637   -2.1853 H   0  0  0  0  0  0  0  0  0  0  0  0
   -8.4697    0.0277   -1.5034 H   0  0  0  0  0  0  0  0  0  0  0  0
   -8.3315    1.1316    2.1389 H   0  0  0  0  0  0  0  0  0  0  0  0
   -8.4743   -0.2900    1.0810 H   0  0  0  0  0  0  0  0  0  0  0  0
   -9.8229    0.8619    1.1985 H   0  0  0  0  0  0  0  0  0  0  0  0
   -6.1550    3.5704    0.2883 H   0  0  0  0  0  0  0  0  0  0  0  0
   -3.7539    3.3534    0.2746 H   0  0  0  0  0  0  0  0  0  0  0  0
  2  1  1  6
  1 57  1  0
  1 58  1  0
  1 59  1  0
  2  3  1  0
  2  4  1  0
  2  5  1  0
  3 60  1  0
  3 61  1  0
  3 62  1  0
  4 63  1  0
  4 64  1  0
  4 65  1  0
  5  6  2  0
  5 10  1  0
  6  7  1  0
  6 66  1  0
  7  8  2  0
  7 67  1  0
  8  9  1  0
  8 21  1  0
  9 10  2  0
  9 11  1  0
 10 68  1  0
 11 12  2  0
 11 20  1  0
 12 13  1  0
 12 69  1  0
 13 14  1  0
 13 18  2  0
 14 15  1  1
 14 16  1  0
 14 17  1  0
 15 70  1  0
 15 71  1  0
 15 72  1  0
 16 73  1  0
 16 74  1  0
 16 75  1  0
 17 76  1  0
 17 77  1  0
 17 78  1  0
 18 19  1  0
 18 79  1  0
 19 20  2  0
 19 35  1  0
 20 21  1  0
 21 22  1  0
 22 23  2  0
 22 34  1  0
 23 24  1  0
 23 80  1  0
 24 25  1  0
 24 32  2  0
 25 26  2  0
 25 30  1  0
 26 27  1  0
 26 81  1  0
 27 28  2  0
 27 82  1  0
 28 29  1  0
 28 83  1  0
 29 30  2  0
 29 84  1  0
 30 31  1  0
 32 33  1  0
 32 85  1  0
 33 34  2  0
 33 55  1  0
 34 35  1  0
 35 36  1  0
 36 37  1  0
 36 56  2  0
 37 38  2  0
 37 86  1  0
 38 39  1  0
 38 43  1  0
 39 40  1  6
 39 41  1  0
 39 42  1  0
 40 87  1  0
 40 88  1  0
 40 89  1  0
 41 90  1  0
 41 91  1  0
 41 92  1  0
 42 93  1  0
 42 94  1  0
 42 95  1  0
 43 44  2  0
 43 96  1  0
 44 45  1  0
 44 56  1  0
 45 46  1  0
 45 54  2  0
 46 47  2  0
 46 97  1  0
 47 48  1  0
 47 52  1  0
 48 49  1  1
 48 50  1  0
 48 51  1  0
 49 98  1  0
 49 99  1  0
 49100  1  0
 50101  1  0
 50102  1  0
 50103  1  0
 51104  1  0
 51105  1  0
 51106  1  0
 52 53  2  0
 52107  1  0
 53 54  1  0
 53108  1  0
 54 55  1  0
 55 56  1  0
M  END

