
     RDKit          3D

 51 57  0  0  0  0  0  0  0  0999 V2000
    5.8978    0.0976   -0.2750 C   0  0  0  0  0  0  0  0  0  0  0  0
    5.2147   -1.1194   -0.3659 C   0  0  0  0  0  0  0  0  0  0  0  0
    3.8189   -1.1467   -0.3012 C   0  0  0  0  0  0  0  0  0  0  0  0
    3.1000    0.0456   -0.1452 C   0  0  0  0  0  0  0  0  0  0  0  0
    1.6661    0.0193   -0.0785 N   0  0  0  0  0  0  0  0  0  0  0  0
    1.0392   -0.1162    1.1716 C   0  0  0  0  0  0  0  0  0  0  0  0
    1.8169   -0.2295    2.3474 C   0  0  0  0  0  0  0  0  0  0  0  0
    1.2176   -0.3646    3.5949 C   0  0  0  0  0  0  0  0  0  0  0  0
   -0.1756   -0.3913    3.7094 C   0  0  0  0  0  0  0  0  0  0  0  0
   -0.9444   -0.2800    2.5541 C   0  0  0  0  0  0  0  0  0  0  0  0
   -0.3683   -0.1424    1.2816 C   0  0  0  0  0  0  0  0  0  0  0  0
   -1.2880   -0.0228    0.0600 C   0  0  2  0  0  0  0  0  0  0  0  0
   -0.4903    0.1099   -1.2433 C   0  0  0  0  0  0  0  0  0  0  0  0
   -1.1864    0.2206   -2.4570 C   0  0  0  0  0  0  0  0  0  0  0  0
   -0.5325    0.3476   -3.6795 C   0  0  0  0  0  0  0  0  0  0  0  0
    0.8654    0.3652   -3.6954 C   0  0  0  0  0  0  0  0  0  0  0  0
    1.5823    0.2572   -2.5088 C   0  0  0  0  0  0  0  0  0  0  0  0
    0.9214    0.1277   -1.2651 C   0  0  0  0  0  0  0  0  0  0  0  0
   -2.2741    1.1453    0.2241 C   0  0  0  0  0  0  0  0  0  0  0  0
   -2.0283    2.5081    0.3483 C   0  0  0  0  0  0  0  0  0  0  0  0
   -3.1367    3.3515    0.4858 C   0  0  0  0  0  0  0  0  0  0  0  0
   -4.4254    2.7958    0.4922 C   0  0  0  0  0  0  0  0  0  0  0  0
   -4.6741    1.4891    0.3738 N   0  0  0  0  0  0  0  0  0  0  0  0
   -3.6102    0.6972    0.2437 C   0  0  0  0  0  0  0  0  0  0  0  0
   -3.6071   -0.7742    0.0968 C   0  0  0  0  0  0  0  0  0  0  0  0
   -4.6676   -1.5807    0.0676 N   0  0  0  0  0  0  0  0  0  0  0  0
   -4.4134   -2.8840   -0.0745 C   0  0  0  0  0  0  0  0  0  0  0  0
   -3.1224   -3.4221   -0.1904 C   0  0  0  0  0  0  0  0  0  0  0  0
   -2.0177   -2.5634   -0.1581 C   0  0  0  0  0  0  0  0  0  0  0  0
   -2.2692   -1.2040   -0.0105 C   0  0  0  0  0  0  0  0  0  0  0  0
    3.7855    1.2639   -0.0544 C   0  0  0  0  0  0  0  0  0  0  0  0
    5.1814    1.2886   -0.1193 C   0  0  0  0  0  0  0  0  0  0  0  0
    6.9893    0.1179   -0.3257 H   0  0  0  0  0  0  0  0  0  0  0  0
    5.7705   -2.0525   -0.4877 H   0  0  0  0  0  0  0  0  0  0  0  0
    3.2750   -2.0913   -0.3711 H   0  0  0  0  0  0  0  0  0  0  0  0
    2.9034   -0.2108    2.2765 H   0  0  0  0  0  0  0  0  0  0  0  0
    1.8481   -0.4498    4.4837 H   0  0  0  0  0  0  0  0  0  0  0  0
   -0.6564   -0.4970    4.6842 H   0  0  0  0  0  0  0  0  0  0  0  0
   -2.0338   -0.2994    2.6334 H   0  0  0  0  0  0  0  0  0  0  0  0
   -2.2786    0.2064   -2.4343 H   0  0  0  0  0  0  0  0  0  0  0  0
   -1.1052    0.4316   -4.6055 H   0  0  0  0  0  0  0  0  0  0  0  0
    1.4074    0.4640   -4.6395 H   0  0  0  0  0  0  0  0  0  0  0  0
    2.6707    0.2726   -2.5395 H   0  0  0  0  0  0  0  0  0  0  0  0
   -1.0108    2.9076    0.3393 H   0  0  0  0  0  0  0  0  0  0  0  0
   -3.0101    4.4319    0.5875 H   0  0  0  0  0  0  0  0  0  0  0  0
   -5.2986    3.4504    0.5994 H   0  0  0  0  0  0  0  0  0  0  0  0
   -5.2838   -3.5504   -0.0989 H   0  0  0  0  0  0  0  0  0  0  0  0
   -2.9913   -4.5006   -0.3042 H   0  0  0  0  0  0  0  0  0  0  0  0
   -0.9985   -2.9490   -0.2457 H   0  0  0  0  0  0  0  0  0  0  0  0
    3.2157    2.1877    0.0671 H   0  0  0  0  0  0  0  0  0  0  0  0
    5.7111    2.2418   -0.0478 H   0  0  0  0  0  0  0  0  0  0  0  0
  1  2  2  0
  1 32  1  0
  1 33  1  0
  2  3  1  0
  2 34  1  0
  3  4  2  0
  3 35  1  0
  4  5  1  0
  4 31  1  0
  5  6  1  0
  5 18  1  0
  6  7  2  0
  6 11  1  0
  7  8  1  0
  7 36  1  0
  8  9  2  0
  8 37  1  0
  9 10  1  0
  9 38  1  0
 10 11  2  0
 10 39  1  0
 12 11  1  1
 12 13  1  0
 12 19  1  0
 12 30  1  0
 13 14  1  0
 13 18  2  0
 14 15  2  0
 14 40  1  0
 15 16  1  0
 15 41  1  0
 16 17  2  0
 16 42  1  0
 17 18  1  0
 17 43  1  0
 19 20  2  0
 19 24  1  0
 20 21  1  0
 20 44  1  0
 21 22  2  0
 21 45  1  0
 22 23  1  0
 22 46  1  0
 23 24  2  0
 24 25  1  0
 25 26  2  0
 25 30  1  0
 26 27  1  0
 27 28  2  0
 27 47  1  0
 28 29  1  0
 28 48  1  0
 29 30  2  0
 29 49  1  0
 31 32  2  0
 31 50  1  0
 32 51  1  0
M  END

