
     RDKit          3D

 46 48  0  0  0  0  0  0  0  0999 V2000
    0.8138    0.1048   -1.0023 C   0  0  0  0  0  0  0  0  0  0  0  0
    2.1939    0.2699   -0.3503 C   0  0  1  0  0  0  0  0  0  0  0  0
    2.8032   -1.0625    0.1241 C   0  0  0  0  0  0  0  0  0  0  0  0
    3.2556   -1.9501   -1.0376 C   0  0  0  0  0  0  0  0  0  0  0  0
    4.1680   -1.1927   -1.8980 N   0  0  0  0  0  0  0  0  0  0  0  0
    5.4287   -1.9774   -2.6752 S   0  0  1  0  0  0  0  0  0  0  0  0
    6.3600   -0.9395   -3.1246 O   0  0  0  0  0  0  0  0  0  0  0  0
    5.8513   -3.0743   -1.8031 O   0  0  0  0  0  0  0  0  0  0  0  0
    4.7066   -2.7377   -4.1844 C   0  0  0  0  0  0  0  0  0  0  0  0
    5.7638   -3.4170   -5.0091 C   0  0  0  0  0  0  0  0  0  0  0  0
    6.2390   -4.6884   -4.6513 C   0  0  0  0  0  0  0  0  0  0  0  0
    7.2476   -5.3009   -5.3968 C   0  0  0  0  0  0  0  0  0  0  0  0
    7.7954   -4.6537   -6.5059 C   0  0  0  0  0  0  0  0  0  0  0  0
    7.3299   -3.3833   -6.8640 C   0  0  0  0  0  0  0  0  0  0  0  0
    7.8796   -2.7041   -8.0949 C   0  0  1  0  0  0  0  0  0  0  0  0
    9.1819   -2.9809   -8.2771 F   0  0  0  0  0  0  0  0  0  0  0  0
    7.2349   -3.1092   -9.2079 F   0  0  0  0  0  0  0  0  0  0  0  0
    7.7511   -1.3682   -8.0332 F   0  0  0  0  0  0  0  0  0  0  0  0
    6.3263   -2.7642   -6.1140 C   0  0  0  0  0  0  0  0  0  0  0  0
    3.6919    0.0899   -2.4124 C   0  0  0  0  0  0  0  0  0  0  0  0
    3.1917    1.0094   -1.2861 C   0  0  2  0  0  0  0  0  0  0  0  0
    4.2823    1.6335   -0.5301 N   0  0  0  0  0  0  0  0  0  0  0  0
    4.1105    2.7233    0.3061 C   0  0  0  0  0  0  0  0  0  0  0  0
    5.3557    3.0015    0.8207 C   0  0  0  0  0  0  0  0  0  0  0  0
    6.2832    2.1216    0.3274 N   0  0  0  0  0  0  0  0  0  0  0  0
    5.6207    1.3179   -0.4736 C   0  0  0  0  0  0  0  0  0  0  0  0
    0.1094   -0.3642   -0.2974 H   0  0  0  0  0  0  0  0  0  0  0  0
    0.8357   -0.5237   -1.9066 H   0  0  0  0  0  0  0  0  0  0  0  0
    0.3924    1.0809   -1.2920 H   0  0  0  0  0  0  0  0  0  0  0  0
    2.0597    0.9099    0.5364 H   0  0  0  0  0  0  0  0  0  0  0  0
    2.0731   -1.6134    0.7395 H   0  0  0  0  0  0  0  0  0  0  0  0
    3.6761   -0.8567    0.7639 H   0  0  0  0  0  0  0  0  0  0  0  0
    2.3814   -2.3133   -1.6155 H   0  0  0  0  0  0  0  0  0  0  0  0
    3.7957   -2.8274   -0.6603 H   0  0  0  0  0  0  0  0  0  0  0  0
    4.2186   -1.9191   -4.7320 H   0  0  0  0  0  0  0  0  0  0  0  0
    3.9445   -3.4411   -3.8184 H   0  0  0  0  0  0  0  0  0  0  0  0
    5.8270   -5.1903   -3.7731 H   0  0  0  0  0  0  0  0  0  0  0  0
    7.6136   -6.2887   -5.1078 H   0  0  0  0  0  0  0  0  0  0  0  0
    8.5875   -5.1278   -7.0885 H   0  0  0  0  0  0  0  0  0  0  0  0
    5.9883   -1.7634   -6.3885 H   0  0  0  0  0  0  0  0  0  0  0  0
    2.8504   -0.0566   -3.1179 H   0  0  0  0  0  0  0  0  0  0  0  0
    4.5085    0.5734   -2.9639 H   0  0  0  0  0  0  0  0  0  0  0  0
    2.6501    1.8330   -1.7814 H   0  0  0  0  0  0  0  0  0  0  0  0
    3.1421    3.1995    0.4420 H   0  0  0  0  0  0  0  0  0  0  0  0
    5.6274    3.7959    1.5158 H   0  0  0  0  0  0  0  0  0  0  0  0
    6.0539    0.5032   -1.0503 H   0  0  0  0  0  0  0  0  0  0  0  0
  1  2  1  0
  1 27  1  0
  1 28  1  0
  1 29  1  0
  2  3  1  0
  2 21  1  0
  2 30  1  1
  3  4  1  0
  3 31  1  0
  3 32  1  0
  4  5  1  0
  4 33  1  0
  4 34  1  0
  5  6  1  0
  5 20  1  0
  6  7  2  0
  6  8  2  0
  6  9  1  6
  9 10  1  0
  9 35  1  0
  9 36  1  0
 10 11  2  0
 10 19  1  0
 11 12  1  0
 11 37  1  0
 12 13  2  0
 12 38  1  0
 13 14  1  0
 13 39  1  0
 14 15  1  0
 14 19  2  0
 15 16  1  6
 15 17  1  0
 15 18  1  0
 19 40  1  0
 20 21  1  0
 20 41  1  0
 20 42  1  0
 21 22  1  0
 21 43  1  6
 22 23  1  0
 22 26  1  0
 23 24  2  0
 23 44  1  0
 24 25  1  0
 24 45  1  0
 25 26  2  0
 26 46  1  0
M  END

