
     RDKit          3D

 74 83  0  0  0  0  0  0  0  0999 V2000
    1.6533    1.3707   -1.1677 O   0  0  0  0  0  0  0  0  0  0  0  0
    2.8402    1.2594   -1.3687 C   0  0  0  0  0  0  0  0  0  0  0  0
    3.5622    0.0910   -1.6233 N   0  0  0  0  0  0  0  0  0  0  0  0
    3.1104   -0.8133   -1.6600 H   0  0  0  0  0  0  0  0  0  0  0  0
    4.9113    0.3521   -1.8049 C   0  0  0  0  0  0  0  0  0  0  0  0
    5.9878   -0.4833   -2.0771 C   0  0  0  0  0  0  0  0  0  0  0  0
    7.2363    0.1429   -2.1941 C   0  0  0  0  0  0  0  0  0  0  0  0
    8.5503   -0.4448   -2.4618 C   0  0  0  0  0  0  0  0  0  0  0  0
    8.8235   -1.7001   -2.5633 N   0  0  0  0  0  0  0  0  0  0  0  0
   10.0535   -2.2140   -2.8599 C   0  0  0  0  0  0  0  0  0  0  0  0
   11.1239   -1.4951   -3.4231 N   0  0  0  0  0  0  0  0  0  0  0  0
   12.1924   -2.3779   -3.6581 C   0  0  0  0  0  0  0  0  0  0  0  0
   13.3806   -2.0483   -4.2664 N   0  0  0  0  0  0  0  0  0  0  0  0
   13.8115   -0.8639   -4.4693 C   0  0  0  0  0  0  0  0  0  0  0  0
   13.2063    0.3593   -4.0778 N   0  0  0  0  0  0  0  0  0  0  0  0
   12.6527    0.3996   -3.2283 H   0  0  0  0  0  0  0  0  0  0  0  0
   13.8926    1.4896   -4.5582 C   0  0  0  0  0  0  0  0  0  0  0  0
   13.7104    2.7193   -4.2482 N   0  0  0  0  0  0  0  0  0  0  0  0
   12.7107    3.1830   -3.4339 C   0  0  0  0  0  0  0  0  0  0  0  0
   11.4919    2.5526   -3.2161 N   0  0  0  0  0  0  0  0  0  0  0  0
   10.6299    3.3379   -2.4444 C   0  0  0  0  0  0  0  0  0  0  0  0
    9.3429    3.0387   -2.1411 N   0  0  0  0  0  0  0  0  0  0  0  0
    8.8029    1.8697   -2.2388 C   0  0  0  0  0  0  0  0  0  0  0  0
    9.4488    0.6471   -2.5624 N   0  0  0  0  0  0  0  0  0  0  0  0
   10.4042    0.4997   -2.2490 H   0  0  0  0  0  0  0  0  0  0  0  0
    7.3922    1.5401   -2.0491 C   0  0  0  0  0  0  0  0  0  0  0  0
    6.3050    2.3855   -1.7832 C   0  0  0  0  0  0  0  0  0  0  0  0
    5.0681    1.7650   -1.6600 C   0  0  0  0  0  0  0  0  0  0  0  0
    3.8042    2.2703   -1.3997 N   0  0  0  0  0  0  0  0  0  0  0  0
    3.5604    3.2397   -1.2444 H   0  0  0  0  0  0  0  0  0  0  0  0
   11.3629    4.4983   -2.1039 C   0  0  0  0  0  0  0  0  0  0  0  0
   11.0348    5.6300   -1.3150 C   0  0  0  0  0  0  0  0  0  0  0  0
   11.9782    6.6257   -1.1695 C   0  0  0  0  0  0  0  0  0  0  0  0
   13.2655    6.5300   -1.7854 C   0  0  0  0  0  0  0  0  0  0  0  0
   13.6158    5.4369   -2.5488 C   0  0  0  0  0  0  0  0  0  0  0  0
   12.6617    4.4004   -2.7222 C   0  0  0  0  0  0  0  0  0  0  0  0
   14.8535    0.9621   -5.5988 C   0  0  1  0  0  0  0  0  0  0  0  0
   16.1475    1.6869   -5.9411 C   0  0  0  0  0  0  0  0  0  0  0  0
   16.8811    0.8652   -7.0216 C   0  0  0  0  0  0  0  0  0  0  0  0
   17.0700   -0.6197   -6.6467 C   0  0  0  0  0  0  0  0  0  0  0  0
   15.7642   -1.3187   -6.2137 C   0  0  0  0  0  0  0  0  0  0  0  0
   15.1189   -0.4775   -5.1222 C   0  0  2  0  0  0  0  0  0  0  0  0
   11.8237   -3.6233   -3.1602 C   0  0  0  0  0  0  0  0  0  0  0  0
   12.6162   -4.8996   -3.1269 C   0  0  0  0  0  0  0  0  0  0  0  0
   11.9879   -5.9090   -2.1495 C   0  0  0  0  0  0  0  0  0  0  0  0
   10.4635   -5.9987   -2.3219 C   0  0  0  0  0  0  0  0  0  0  0  0
    9.7755   -4.6612   -1.9971 C   0  0  0  0  0  0  0  0  0  0  0  0
   10.4912   -3.5228   -2.6637 C   0  0  0  0  0  0  0  0  0  0  0  0
    5.8871   -1.5635   -2.1931 H   0  0  0  0  0  0  0  0  0  0  0  0
   10.9383   -0.7318   -4.0658 H   0  0  0  0  0  0  0  0  0  0  0  0
   11.1358    1.8248   -3.8253 H   0  0  0  0  0  0  0  0  0  0  0  0
    6.4418    3.4630   -1.6793 H   0  0  0  0  0  0  0  0  0  0  0  0
   10.0521    5.7001   -0.8439 H   0  0  0  0  0  0  0  0  0  0  0  0
   11.7440    7.5108   -0.5721 H   0  0  0  0  0  0  0  0  0  0  0  0
   13.9805    7.3447   -1.6435 H   0  0  0  0  0  0  0  0  0  0  0  0
   14.5980    5.3592   -3.0199 H   0  0  0  0  0  0  0  0  0  0  0  0
   14.2568    0.8879   -6.5326 H   0  0  0  0  0  0  0  0  0  0  0  0
   16.7713    1.7810   -5.0349 H   0  0  0  0  0  0  0  0  0  0  0  0
   15.9435    2.7095   -6.2947 H   0  0  0  0  0  0  0  0  0  0  0  0
   17.8623    1.3184   -7.2387 H   0  0  0  0  0  0  0  0  0  0  0  0
   16.3014    0.9265   -7.9609 H   0  0  0  0  0  0  0  0  0  0  0  0
   17.7958   -0.6896   -5.8159 H   0  0  0  0  0  0  0  0  0  0  0  0
   17.5237   -1.1591   -7.4944 H   0  0  0  0  0  0  0  0  0  0  0  0
   15.9650   -2.3402   -5.8552 H   0  0  0  0  0  0  0  0  0  0  0  0
   15.0720   -1.4117   -7.0693 H   0  0  0  0  0  0  0  0  0  0  0  0
   15.8425   -0.4032   -4.2825 H   0  0  0  0  0  0  0  0  0  0  0  0
   13.6685   -4.6999   -2.8686 H   0  0  0  0  0  0  0  0  0  0  0  0
   12.6382   -5.3394   -4.1420 H   0  0  0  0  0  0  0  0  0  0  0  0
   12.2139   -5.6054   -1.1107 H   0  0  0  0  0  0  0  0  0  0  0  0
   12.4483   -6.9004   -2.2909 H   0  0  0  0  0  0  0  0  0  0  0  0
   10.0525   -6.7953   -1.6804 H   0  0  0  0  0  0  0  0  0  0  0  0
   10.2351   -6.2876   -3.3642 H   0  0  0  0  0  0  0  0  0  0  0  0
    9.7760   -4.5095   -0.9009 H   0  0  0  0  0  0  0  0  0  0  0  0
    8.7137   -4.6730   -2.2936 H   0  0  0  0  0  0  0  0  0  0  0  0
  1  2  2  0
  2  3  1  0
  2 29  1  0
  3  4  1  0
  3  5  1  0
  5  6  2  0
  5 28  1  0
  6  7  1  0
  6 49  1  0
  7  8  1  0
  7 26  2  0
  8  9  2  0
  8 24  1  0
  9 10  1  0
 10 11  1  0
 10 48  2  0
 11 12  1  0
 11 50  1  0
 12 13  1  0
 12 43  2  0
 13 14  2  0
 14 15  1  0
 14 42  1  0
 15 16  1  0
 15 17  1  0
 17 18  2  0
 17 37  1  0
 18 19  1  0
 19 20  1  0
 19 36  2  0
 20 21  1  0
 20 51  1  0
 21 22  1  0
 21 31  2  0
 22 23  2  0
 23 24  1  0
 23 26  1  0
 24 25  1  0
 26 27  1  0
 27 28  2  0
 27 52  1  0
 28 29  1  0
 29 30  1  0
 31 32  1  0
 31 36  1  0
 32 33  2  0
 32 53  1  0
 33 34  1  0
 33 54  1  0
 34 35  2  0
 34 55  1  0
 35 36  1  0
 35 56  1  0
 37 38  1  0
 37 42  1  0
 37 57  1  6
 38 39  1  0
 38 58  1  0
 38 59  1  0
 39 40  1  0
 39 60  1  0
 39 61  1  0
 40 41  1  0
 40 62  1  0
 40 63  1  0
 41 42  1  0
 41 64  1  0
 41 65  1  0
 42 66  1  1
 43 44  1  0
 43 48  1  0
 44 45  1  0
 44 67  1  0
 44 68  1  0
 45 46  1  0
 45 69  1  0
 45 70  1  0
 46 47  1  0
 46 71  1  0
 46 72  1  0
 47 48  1  0
 47 73  1  0
 47 74  1  0
M  END

