
     RDKit          3D

 46 49  0  0  0  0  0  0  0  0999 V2000
    0.3496    1.3471    0.6442 O   0  0  0  0  0  0  0  0  0  0  0  0
    0.8329    2.2333    1.3169 C   0  0  0  0  0  0  0  0  0  0  0  0
    1.6464    1.9333    2.5628 C   0  0  0  0  0  0  0  0  0  0  0  0
    1.7450    0.1358    2.8313 S   0  0  0  0  0  0  0  0  0  0  0  0
    2.7743    0.1152    4.2811 C   0  0  0  0  0  0  0  0  0  0  0  0
    3.0740   -1.1762    4.8144 C   0  0  0  0  0  0  0  0  0  0  0  0
    3.8601   -1.2818    5.9409 C   0  0  0  0  0  0  0  0  0  0  0  0
    4.1569   -2.6467    6.5262 C   0  0  0  0  0  0  0  0  0  0  0  0
    4.1719   -2.8604    7.7261 O   0  0  0  0  0  0  0  0  0  0  0  0
    4.3859   -3.6298    5.5973 N   0  0  0  0  0  0  0  0  0  0  0  0
    4.7204   -4.9693    5.9876 C   0  0  1  0  0  0  0  0  0  0  0  0
    3.6239   -5.9088    6.4123 C   0  0  0  0  0  0  0  0  0  0  0  0
    4.3016   -6.0937    5.0786 C   0  0  0  0  0  0  0  0  0  0  0  0
    4.3520   -0.0786    6.5572 C   0  0  0  0  0  0  0  0  0  0  0  0
    5.1594   -0.0490    7.7271 C   0  0  0  0  0  0  0  0  0  0  0  0
    5.6096    1.1529    8.2388 C   0  0  0  0  0  0  0  0  0  0  0  0
    5.2716    2.3749    7.6107 C   0  0  0  0  0  0  0  0  0  0  0  0
    4.4835    2.3797    6.4782 C   0  0  0  0  0  0  0  0  0  0  0  0
    4.0034    1.1625    5.9257 C   0  0  0  0  0  0  0  0  0  0  0  0
    3.2227    1.2274    4.8064 N   0  0  0  0  0  0  0  0  0  0  0  0
    0.6427    3.6789    0.9370 C   0  0  0  0  0  0  0  0  0  0  0  0
    1.1756    4.7499    1.6751 C   0  0  0  0  0  0  0  0  0  0  0  0
    0.9631    6.0710    1.2687 C   0  0  0  0  0  0  0  0  0  0  0  0
    0.2173    6.3425    0.1216 C   0  0  0  0  0  0  0  0  0  0  0  0
   -0.3060    5.2683   -0.6024 C   0  0  0  0  0  0  0  0  0  0  0  0
   -1.0997    5.5495   -1.8234 N   0  0  0  0  0  0  0  0  0  0  0  0
   -1.2558    6.7196   -2.1314 O   0  0  0  0  0  0  0  0  0  0  0  0
   -1.5427    4.5954   -2.4377 O   0  0  0  0  0  0  0  0  0  0  0  0
   -0.1084    3.9478   -0.2178 C   0  0  0  0  0  0  0  0  0  0  0  0
    1.1995    2.4156    3.4466 H   0  0  0  0  0  0  0  0  0  0  0  0
    2.6627    2.3489    2.4774 H   0  0  0  0  0  0  0  0  0  0  0  0
    2.6548   -2.0647    4.3375 H   0  0  0  0  0  0  0  0  0  0  0  0
    4.5730   -3.3513    4.6405 H   0  0  0  0  0  0  0  0  0  0  0  0
    5.6795   -5.0678    6.5107 H   0  0  0  0  0  0  0  0  0  0  0  0
    2.6053   -5.5133    6.4164 H   0  0  0  0  0  0  0  0  0  0  0  0
    3.8443   -6.6106    7.2206 H   0  0  0  0  0  0  0  0  0  0  0  0
    3.7333   -5.8328    4.1806 H   0  0  0  0  0  0  0  0  0  0  0  0
    4.9952   -6.9281    4.9456 H   0  0  0  0  0  0  0  0  0  0  0  0
    5.3979   -0.9882    8.2242 H   0  0  0  0  0  0  0  0  0  0  0  0
    6.2277    1.1601    9.1398 H   0  0  0  0  0  0  0  0  0  0  0  0
    5.6349    3.3177    8.0280 H   0  0  0  0  0  0  0  0  0  0  0  0
    4.2043    3.3071    5.9744 H   0  0  0  0  0  0  0  0  0  0  0  0
    1.7625    4.5627    2.5762 H   0  0  0  0  0  0  0  0  0  0  0  0
    1.3821    6.8946    1.8508 H   0  0  0  0  0  0  0  0  0  0  0  0
    0.0324    7.3595   -0.2234 H   0  0  0  0  0  0  0  0  0  0  0  0
   -0.5275    3.1275   -0.7998 H   0  0  0  0  0  0  0  0  0  0  0  0
  1  2  2  0
  2  3  1  0
  2 21  1  0
  3  4  1  0
  3 30  1  0
  3 31  1  0
  4  5  1  0
  5  6  2  0
  5 20  1  0
  6  7  1  0
  6 32  1  0
  7  8  1  0
  7 14  2  0
  8  9  2  0
  8 10  1  0
 10 11  1  0
 10 33  1  0
 11 12  1  0
 11 13  1  0
 11 34  1  1
 12 13  1  0
 12 35  1  0
 12 36  1  0
 13 37  1  0
 13 38  1  0
 14 15  1  0
 14 19  1  0
 15 16  2  0
 15 39  1  0
 16 17  1  0
 16 40  1  0
 17 18  2  0
 17 41  1  0
 18 19  1  0
 18 42  1  0
 19 20  2  0
 21 22  2  0
 21 29  1  0
 22 23  1  0
 22 43  1  0
 23 24  2  0
 23 44  1  0
 24 25  1  0
 24 45  1  0
 25 26  1  0
 25 29  2  0
 26 27  2  0
 26 28  1  0
 29 46  1  0
M  CHG  2  26   1  28  -1
M  END

