
     RDKit          3D

 36 37  0  0  0  0  0  0  0  0999 V2000
    5.0396   -2.3690    2.3395 C   0  0  0  0  0  0  0  0  0  0  0  0
    4.8506   -1.3630    1.2189 C   0  0  0  0  0  0  0  0  0  0  0  0
    5.0667   -0.0654    1.7220 O   0  0  0  0  0  0  0  0  0  0  0  0
    4.9111    0.9632    0.7703 C   0  0  0  0  0  0  0  0  0  0  0  0
    5.1570    2.3088    1.4339 C   0  0  0  0  0  0  0  0  0  0  0  0
    6.5586    2.4237    2.0389 C   0  0  0  0  0  0  0  0  0  0  0  0
    6.8070    3.7484    2.6874 C   0  0  0  0  0  0  0  0  0  0  0  0
    6.0360    4.8086    2.6156 N   0  0  0  0  0  0  0  0  0  0  0  0
    6.6335    5.8216    3.3254 N   0  0  0  0  0  0  0  0  0  0  0  0
    7.7555    5.3547    3.8124 C   0  0  0  0  0  0  0  0  0  0  0  0
    7.9168    4.0379    3.4501 N   0  0  0  0  0  0  0  0  0  0  0  0
    9.0875    3.2255    3.7493 C   0  0  0  0  0  0  0  0  0  0  0  0
    9.8906    3.8988    4.8781 C   0  0  0  0  0  0  0  0  0  0  0  0
   10.0433    5.3344    4.7133 N   0  0  0  0  0  0  0  0  0  0  0  0
    8.7615    6.0495    4.7000 C   0  0  1  0  0  0  0  0  0  0  0  0
    8.9436    7.5158    4.3205 C   0  0  0  0  0  0  0  0  0  0  0  0
    4.8703   -3.3938    1.9736 H   0  0  0  0  0  0  0  0  0  0  0  0
    4.3328   -2.1701    3.1600 H   0  0  0  0  0  0  0  0  0  0  0  0
    6.0610   -2.3093    2.7468 H   0  0  0  0  0  0  0  0  0  0  0  0
    3.8269   -1.4447    0.7950 H   0  0  0  0  0  0  0  0  0  0  0  0
    5.5532   -1.5751    0.3844 H   0  0  0  0  0  0  0  0  0  0  0  0
    3.8893    0.9386    0.3374 H   0  0  0  0  0  0  0  0  0  0  0  0
    5.6182    0.8122   -0.0752 H   0  0  0  0  0  0  0  0  0  0  0  0
    4.4056    2.4700    2.2231 H   0  0  0  0  0  0  0  0  0  0  0  0
    5.0012    3.1116    0.6966 H   0  0  0  0  0  0  0  0  0  0  0  0
    7.3192    2.2531    1.2520 H   0  0  0  0  0  0  0  0  0  0  0  0
    6.7019    1.6105    2.7707 H   0  0  0  0  0  0  0  0  0  0  0  0
    9.7093    3.1282    2.8404 H   0  0  0  0  0  0  0  0  0  0  0  0
    8.7717    2.2100    4.0392 H   0  0  0  0  0  0  0  0  0  0  0  0
   10.8817    3.4226    4.9472 H   0  0  0  0  0  0  0  0  0  0  0  0
    9.3824    3.7178    5.8414 H   0  0  0  0  0  0  0  0  0  0  0  0
   10.5662    5.5446    3.8618 H   0  0  0  0  0  0  0  0  0  0  0  0
    8.3675    6.0115    5.7348 H   0  0  0  0  0  0  0  0  0  0  0  0
    9.3632    7.6080    3.3049 H   0  0  0  0  0  0  0  0  0  0  0  0
    9.6229    8.0101    5.0306 H   0  0  0  0  0  0  0  0  0  0  0  0
    7.9714    8.0273    4.3218 H   0  0  0  0  0  0  0  0  0  0  0  0
  1  2  1  0
  1 17  1  0
  1 18  1  0
  1 19  1  0
  2  3  1  0
  2 20  1  0
  2 21  1  0
  3  4  1  0
  4  5  1  0
  4 22  1  0
  4 23  1  0
  5  6  1  0
  5 24  1  0
  5 25  1  0
  6  7  1  0
  6 26  1  0
  6 27  1  0
  7  8  2  0
  7 11  1  0
  8  9  1  0
  9 10  2  0
 10 11  1  0
 10 15  1  0
 11 12  1  0
 12 13  1  0
 12 28  1  0
 12 29  1  0
 13 14  1  0
 13 30  1  0
 13 31  1  0
 14 15  1  0
 14 32  1  0
 15 16  1  0
 15 33  1  1
 16 34  1  0
 16 35  1  0
 16 36  1  0
M  END

