
     RDKit          3D

 50 51  0  0  0  0  0  0  0  0999 V2000
    3.1995    2.4642    0.7901 C   0  0  0  0  0  0  0  0  0  0  0  0
    4.4674    2.3642   -0.0419 C   0  0  0  0  0  0  0  0  0  0  0  0
    5.1318    3.3350   -0.3580 O   0  0  0  0  0  0  0  0  0  0  0  0
    4.7977    1.0936   -0.4510 N   0  0  0  0  0  0  0  0  0  0  0  0
    6.0421    0.8755   -1.1795 C   0  0  1  0  0  0  0  0  0  0  0  0
    6.4328   -0.6173   -1.1251 C   0  0  0  0  0  0  0  0  0  0  0  0
    6.5159   -1.1153    0.3000 C   0  0  0  0  0  0  0  0  0  0  0  0
    7.2209   -0.6665    1.1647 O   0  0  0  0  0  0  0  0  0  0  0  0
    5.6486   -2.1464    0.5018 O   0  0  0  0  0  0  0  0  0  0  0  0
    5.4418   -2.5598    1.8329 C   0  0  0  0  0  0  0  0  0  0  0  0
    4.2699   -1.7741    2.4425 C   0  0  0  0  0  0  0  0  0  0  0  0
    3.7240   -0.8646    1.8437 O   0  0  0  0  0  0  0  0  0  0  0  0
    3.9434   -2.2189    3.6974 N   0  0  0  0  0  0  0  0  0  0  0  0
    2.9539   -1.7630    4.5682 C   0  0  0  0  0  0  0  0  0  0  0  0
    2.0433   -0.7464    4.2089 C   0  0  0  0  0  0  0  0  0  0  0  0
    1.0678   -0.3088    5.0953 C   0  0  0  0  0  0  0  0  0  0  0  0
    0.9309   -0.8472    6.3893 C   0  0  0  0  0  0  0  0  0  0  0  0
   -0.1348   -0.3493    7.3323 C   0  0  0  0  0  0  0  0  0  0  0  0
    1.8201   -1.8535    6.7534 C   0  0  0  0  0  0  0  0  0  0  0  0
    2.8124   -2.3113    5.8729 C   0  0  0  0  0  0  0  0  0  0  0  0
    3.6801   -3.3817    6.3846 N   0  0  0  0  0  0  0  0  0  0  0  0
    4.5480   -3.8532    5.6403 O   0  0  0  0  0  0  0  0  0  0  0  0
    3.5109   -3.7692    7.5239 O   0  0  0  0  0  0  0  0  0  0  0  0
    5.9754    1.3482   -2.6278 C   0  0  0  0  0  0  0  0  0  0  0  0
    7.0539    2.0360   -3.1978 C   0  0  0  0  0  0  0  0  0  0  0  0
    7.0346    2.4281   -4.5381 C   0  0  0  0  0  0  0  0  0  0  0  0
    5.9163    2.1301   -5.3206 C   0  0  0  0  0  0  0  0  0  0  0  0
    5.8778    2.6193   -7.0012 Cl  0  0  0  0  0  0  0  0  0  0  0  0
    4.8237    1.4518   -4.7726 C   0  0  0  0  0  0  0  0  0  0  0  0
    4.8624    1.0660   -3.4316 C   0  0  0  0  0  0  0  0  0  0  0  0
    3.2143    3.4149    1.3379 H   0  0  0  0  0  0  0  0  0  0  0  0
    3.1037    1.6208    1.4893 H   0  0  0  0  0  0  0  0  0  0  0  0
    2.3207    2.4606    0.1241 H   0  0  0  0  0  0  0  0  0  0  0  0
    4.3305    0.3077   -0.0035 H   0  0  0  0  0  0  0  0  0  0  0  0
    6.8352    1.4532   -0.6772 H   0  0  0  0  0  0  0  0  0  0  0  0
    7.4242   -0.7298   -1.5893 H   0  0  0  0  0  0  0  0  0  0  0  0
    5.7195   -1.2315   -1.6921 H   0  0  0  0  0  0  0  0  0  0  0  0
    6.3464   -2.3979    2.4415 H   0  0  0  0  0  0  0  0  0  0  0  0
    5.2042   -3.6345    1.8130 H   0  0  0  0  0  0  0  0  0  0  0  0
    4.4959   -2.9785    4.1062 H   0  0  0  0  0  0  0  0  0  0  0  0
    2.1235   -0.3133    3.2158 H   0  0  0  0  0  0  0  0  0  0  0  0
    0.3858    0.4815    4.7686 H   0  0  0  0  0  0  0  0  0  0  0  0
   -0.0033    0.7237    7.5499 H   0  0  0  0  0  0  0  0  0  0  0  0
   -0.1142   -0.8920    8.2880 H   0  0  0  0  0  0  0  0  0  0  0  0
   -1.1404   -0.4685    6.8961 H   0  0  0  0  0  0  0  0  0  0  0  0
    1.7713   -2.3177    7.7377 H   0  0  0  0  0  0  0  0  0  0  0  0
    7.9212    2.2862   -2.5805 H   0  0  0  0  0  0  0  0  0  0  0  0
    7.8745    2.9710   -4.9748 H   0  0  0  0  0  0  0  0  0  0  0  0
    3.9532    1.2341   -5.3938 H   0  0  0  0  0  0  0  0  0  0  0  0
    4.0018    0.5503   -2.9976 H   0  0  0  0  0  0  0  0  0  0  0  0
  1  2  1  0
  1 31  1  0
  1 32  1  0
  1 33  1  0
  2  3  2  0
  2  4  1  0
  4  5  1  0
  4 34  1  0
  5  6  1  0
  5 24  1  0
  5 35  1  1
  6  7  1  0
  6 36  1  0
  6 37  1  0
  7  8  2  0
  7  9  1  0
  9 10  1  0
 10 11  1  0
 10 38  1  0
 10 39  1  0
 11 12  2  0
 11 13  1  0
 13 14  1  0
 13 40  1  0
 14 15  2  0
 14 20  1  0
 15 16  1  0
 15 41  1  0
 16 17  2  0
 16 42  1  0
 17 18  1  0
 17 19  1  0
 18 43  1  0
 18 44  1  0
 18 45  1  0
 19 20  2  0
 19 46  1  0
 20 21  1  0
 21 22  2  0
 21 23  1  0
 24 25  2  0
 24 30  1  0
 25 26  1  0
 25 47  1  0
 26 27  2  0
 26 48  1  0
 27 28  1  0
 27 29  1  0
 29 30  2  0
 29 49  1  0
 30 50  1  0
M  CHG  2  21   1  23  -1
M  END

