
     RDKit          3D

 74 82  0  0  0  0  0  0  0  0999 V2000
    3.4817   -0.7969    1.1015 C   0  0  0  0  0  0  0  0  0  0  0  0
    2.1602   -0.1235    1.5049 C   0  0  1  0  0  0  0  0  0  0  0  0
    0.9733   -1.0976    1.4082 C   0  0  0  0  0  0  0  0  0  0  0  0
    2.2009    0.6696    2.8478 C   0  0  1  0  0  0  0  0  0  0  0  0
    2.6606   -0.0848    4.1400 C   0  0  1  0  0  0  0  0  0  0  0  0
    1.9299    0.4581    5.4209 C   0  0  2  0  0  0  0  0  0  0  0  0
    2.5328    1.7212    6.0313 C   0  0  0  0  0  0  0  0  0  0  0  0
    2.3288    2.9394    5.1127 C   0  0  0  0  0  0  0  0  0  0  0  0
    3.2477    2.9921    3.8859 C   0  0  2  0  0  0  0  0  0  0  0  0
    3.4127    4.3475    3.1133 C   0  0  1  0  0  0  0  0  0  0  0  0
    4.2418    3.8205    1.9079 C   0  0  0  0  0  0  0  0  0  0  0  0
    3.1429    2.8179    1.4430 C   0  0  2  0  0  0  0  0  0  0  0  0
    2.0179    3.8630    1.1630 C   0  0  1  0  0  0  0  0  0  0  0  0
    0.4684    3.7831    1.1046 C   0  0  1  0  0  0  0  0  0  0  0  0
   -0.2267    3.3233    2.4124 C   0  0  0  0  0  0  0  0  0  0  0  0
   -0.0924    4.5489    3.3651 C   0  0  0  0  0  0  0  0  0  0  0  0
    0.8203    5.4929    2.5743 C   0  0  2  0  0  0  0  0  0  0  0  0
    0.1847    5.3112    1.1653 C   0  0  0  0  0  0  0  0  0  0  0  0
    2.2548    4.9672    2.2602 C   0  0  1  0  0  0  0  0  0  0  0  0
    3.1237    1.9184    2.7123 C   0  0  2  0  0  0  0  0  0  0  0  0
    1.7396   -0.8117    6.2927 C   0  0  1  0  0  0  0  0  0  0  0  0
    1.2354   -1.7566    5.1773 C   0  0  0  0  0  0  0  0  0  0  0  0
    2.5218   -1.6401    4.3379 C   0  0  2  0  0  0  0  0  0  0  0  0
    3.6450   -2.0063    5.3469 C   0  0  2  0  0  0  0  0  0  0  0  0
    3.9222   -3.4785    5.7582 C   0  0  1  0  0  0  0  0  0  0  0  0
    5.2268   -3.4449    6.5970 C   0  0  0  0  0  0  0  0  0  0  0  0
    4.7691   -2.7648    7.9324 C   0  0  0  0  0  0  0  0  0  0  0  0
    3.2528   -2.5283    7.7045 C   0  0  2  0  0  0  0  0  0  0  0  0
    2.9063   -3.7875    6.8821 C   0  0  0  0  0  0  0  0  0  0  0  0
    3.1329   -1.3612    6.6922 C   0  0  2  0  0  0  0  0  0  0  0  0
    3.3903   -1.2538    0.1023 H   0  0  0  0  0  0  0  0  0  0  0  0
    3.7764   -1.5958    1.7990 H   0  0  0  0  0  0  0  0  0  0  0  0
    4.3149   -0.0785    1.0542 H   0  0  0  0  0  0  0  0  0  0  0  0
    1.9566    0.6402    0.7350 H   0  0  0  0  0  0  0  0  0  0  0  0
    1.0646   -1.9626    2.0802 H   0  0  0  0  0  0  0  0  0  0  0  0
    0.8845   -1.4916    0.3820 H   0  0  0  0  0  0  0  0  0  0  0  0
    0.0244   -0.5906    1.6487 H   0  0  0  0  0  0  0  0  0  0  0  0
    1.1604    0.9798    3.0128 H   0  0  0  0  0  0  0  0  0  0  0  0
    3.7363    0.1337    4.2395 H   0  0  0  0  0  0  0  0  0  0  0  0
    0.9075    0.7400    5.1133 H   0  0  0  0  0  0  0  0  0  0  0  0
    3.6066    1.5895    6.2562 H   0  0  0  0  0  0  0  0  0  0  0  0
    2.0356    1.9235    6.9968 H   0  0  0  0  0  0  0  0  0  0  0  0
    1.2713    2.9546    4.8277 H   0  0  0  0  0  0  0  0  0  0  0  0
    2.5057    3.8622    5.6930 H   0  0  0  0  0  0  0  0  0  0  0  0
    4.2529    2.8422    4.3187 H   0  0  0  0  0  0  0  0  0  0  0  0
    3.9192    5.0991    3.7398 H   0  0  0  0  0  0  0  0  0  0  0  0
    5.1832    3.3290    2.1986 H   0  0  0  0  0  0  0  0  0  0  0  0
    4.4735    4.5960    1.1618 H   0  0  0  0  0  0  0  0  0  0  0  0
    3.4071    2.2520    0.5381 H   0  0  0  0  0  0  0  0  0  0  0  0
    2.2972    4.2716    0.1765 H   0  0  0  0  0  0  0  0  0  0  0  0
    0.0896    3.2667    0.2093 H   0  0  0  0  0  0  0  0  0  0  0  0
    0.2182    2.4169    2.8323 H   0  0  0  0  0  0  0  0  0  0  0  0
   -1.2838    3.0878    2.2106 H   0  0  0  0  0  0  0  0  0  0  0  0
    0.2782    4.3087    4.3658 H   0  0  0  0  0  0  0  0  0  0  0  0
   -1.0694    5.0391    3.5081 H   0  0  0  0  0  0  0  0  0  0  0  0
    0.8218    6.5227    2.9631 H   0  0  0  0  0  0  0  0  0  0  0  0
    0.6871    5.8816    0.3679 H   0  0  0  0  0  0  0  0  0  0  0  0
   -0.8889    5.5596    1.1481 H   0  0  0  0  0  0  0  0  0  0  0  0
    2.7444    5.8373    1.7910 H   0  0  0  0  0  0  0  0  0  0  0  0
    4.1212    1.4508    2.6694 H   0  0  0  0  0  0  0  0  0  0  0  0
    1.0569   -0.6514    7.1425 H   0  0  0  0  0  0  0  0  0  0  0  0
    0.3532   -1.3448    4.6620 H   0  0  0  0  0  0  0  0  0  0  0  0
    0.9835   -2.7751    5.4861 H   0  0  0  0  0  0  0  0  0  0  0  0
    2.5613   -2.2395    3.4220 H   0  0  0  0  0  0  0  0  0  0  0  0
    4.5894   -1.5632    4.9944 H   0  0  0  0  0  0  0  0  0  0  0  0
    3.9515   -4.1862    4.9155 H   0  0  0  0  0  0  0  0  0  0  0  0
    6.0337   -2.8919    6.0918 H   0  0  0  0  0  0  0  0  0  0  0  0
    5.5967   -4.4664    6.7779 H   0  0  0  0  0  0  0  0  0  0  0  0
    4.9341   -3.4293    8.7950 H   0  0  0  0  0  0  0  0  0  0  0  0
    5.3087   -1.8271    8.1382 H   0  0  0  0  0  0  0  0  0  0  0  0
    2.6805   -2.3779    8.6328 H   0  0  0  0  0  0  0  0  0  0  0  0
    1.8603   -3.8687    6.5719 H   0  0  0  0  0  0  0  0  0  0  0  0
    3.1608   -4.7161    7.4200 H   0  0  0  0  0  0  0  0  0  0  0  0
    3.7672   -0.5305    7.0369 H   0  0  0  0  0  0  0  0  0  0  0  0
  1  2  1  0
  1 31  1  0
  1 32  1  0
  1 33  1  0
  2  3  1  0
  2  4  1  0
  2 34  1  6
  3 35  1  0
  3 36  1  0
  3 37  1  0
  4  5  1  0
  4 20  1  0
  4 38  1  1
  5  6  1  0
  5 23  1  0
  5 39  1  1
  6  7  1  0
  6 21  1  0
  6 40  1  6
  7  8  1  0
  7 41  1  0
  7 42  1  0
  8  9  1  0
  8 43  1  0
  8 44  1  0
  9 10  1  0
  9 20  1  0
  9 45  1  1
 10 11  1  0
 10 19  1  0
 10 46  1  1
 11 12  1  0
 11 47  1  0
 11 48  1  0
 12 13  1  0
 12 20  1  0
 12 49  1  6
 13 14  1  0
 13 19  1  0
 13 50  1  6
 14 15  1  0
 14 18  1  0
 14 51  1  6
 15 16  1  0
 15 52  1  0
 15 53  1  0
 16 17  1  0
 16 54  1  0
 16 55  1  0
 17 18  1  0
 17 19  1  0
 17 56  1  1
 18 57  1  0
 18 58  1  0
 19 59  1  6
 20 60  1  6
 21 22  1  0
 21 30  1  0
 21 61  1  1
 22 23  1  0
 22 62  1  0
 22 63  1  0
 23 24  1  0
 23 64  1  6
 24 25  1  0
 24 30  1  0
 24 65  1  6
 25 26  1  0
 25 29  1  0
 25 66  1  6
 26 27  1  0
 26 67  1  0
 26 68  1  0
 27 28  1  0
 27 69  1  0
 27 70  1  0
 28 29  1  0
 28 30  1  0
 28 71  1  1
 29 72  1  0
 29 73  1  0
 30 74  1  1
M  END

