
     RDKit          3D

 33 34  0  0  0  0  0  0  0  0999 V2000
    0.9739   -1.1674   -2.1581 C   0  0  0  0  0  0  0  0  0  0  0  0
    2.3767   -1.4655   -1.9340 N   0  0  0  0  0  0  0  0  0  0  0  0
    3.2582   -1.0333   -3.0050 C   0  0  0  0  0  0  0  0  0  0  0  0
    4.7401   -1.1630   -2.6457 C   0  0  0  0  0  0  0  0  0  0  0  0
    5.2026   -2.6107   -2.4391 C   0  0  0  0  0  0  0  0  0  0  0  0
    6.6433   -2.7343   -2.2432 N   0  0  0  0  0  0  0  0  0  0  0  0
    7.5438   -2.9437   -3.2548 C   0  0  0  0  0  0  0  0  0  0  0  0
    8.7894   -2.8210   -2.8598 N   0  0  0  0  0  0  0  0  0  0  0  0
    8.7127   -2.4982   -1.5338 C   0  0  0  0  0  0  0  0  0  0  0  0
    7.3940   -2.4323   -1.1102 C   0  0  0  0  0  0  0  0  0  0  0  0
    6.8541   -2.1519    0.2301 C   0  0  0  0  0  0  0  0  0  0  0  0
    7.3481   -1.0572    0.9660 C   0  0  0  0  0  0  0  0  0  0  0  0
    6.9002   -0.7896    2.2605 C   0  0  0  0  0  0  0  0  0  0  0  0
    5.9337   -1.6177    2.8370 C   0  0  0  0  0  0  0  0  0  0  0  0
    5.3040   -1.2527    4.5997 Br  0  0  0  0  0  0  0  0  0  0  0  0
    5.4270   -2.7143    2.1344 C   0  0  0  0  0  0  0  0  0  0  0  0
    5.8934   -2.9781    0.8457 C   0  0  0  0  0  0  0  0  0  0  0  0
    0.3689   -1.5619   -1.3268 H   0  0  0  0  0  0  0  0  0  0  0  0
    0.5586   -1.5773   -3.1066 H   0  0  0  0  0  0  0  0  0  0  0  0
    0.8221   -0.0749   -2.1840 H   0  0  0  0  0  0  0  0  0  0  0  0
    2.4865   -2.4639   -1.7645 H   0  0  0  0  0  0  0  0  0  0  0  0
    3.0463    0.0318   -3.2022 H   0  0  0  0  0  0  0  0  0  0  0  0
    3.0638   -1.5591   -3.9714 H   0  0  0  0  0  0  0  0  0  0  0  0
    4.9396   -0.5844   -1.7292 H   0  0  0  0  0  0  0  0  0  0  0  0
    5.3429   -0.7171   -3.4547 H   0  0  0  0  0  0  0  0  0  0  0  0
    4.9452   -3.2212   -3.3202 H   0  0  0  0  0  0  0  0  0  0  0  0
    4.6887   -3.0562   -1.5761 H   0  0  0  0  0  0  0  0  0  0  0  0
    7.2135   -3.1844   -4.2666 H   0  0  0  0  0  0  0  0  0  0  0  0
    9.6022   -2.3619   -0.9188 H   0  0  0  0  0  0  0  0  0  0  0  0
    8.0891   -0.3985    0.5078 H   0  0  0  0  0  0  0  0  0  0  0  0
    7.2928    0.0647    2.8145 H   0  0  0  0  0  0  0  0  0  0  0  0
    4.6850   -3.3671    2.5971 H   0  0  0  0  0  0  0  0  0  0  0  0
    5.5254   -3.8652    0.3253 H   0  0  0  0  0  0  0  0  0  0  0  0
  1  2  1  0
  1 18  1  0
  1 19  1  0
  1 20  1  0
  2  3  1  0
  2 21  1  0
  3  4  1  0
  3 22  1  0
  3 23  1  0
  4  5  1  0
  4 24  1  0
  4 25  1  0
  5  6  1  0
  5 26  1  0
  5 27  1  0
  6  7  1  0
  6 10  1  0
  7  8  2  0
  7 28  1  0
  8  9  1  0
  9 10  2  0
  9 29  1  0
 10 11  1  0
 11 12  2  0
 11 17  1  0
 12 13  1  0
 12 30  1  0
 13 14  2  0
 13 31  1  0
 14 15  1  0
 14 16  1  0
 16 17  2  0
 16 32  1  0
 17 33  1  0
M  END

