
     RDKit          3D

 73 82  0  0  0  0  0  0  0  0999 V2000
    1.7857    3.6320   -0.4292 N   0  0  0  0  0  0  0  0  0  0  0  0
    1.2746    2.5976   -0.3083 C   0  0  0  0  0  0  0  0  0  0  0  0
    0.6467    1.3179   -0.1557 C   0  0  0  0  0  0  0  0  0  0  0  0
   -0.6495    1.2353    0.4059 C   0  0  0  0  0  0  0  0  0  0  0  0
   -1.3553    2.3811    0.8207 N   0  0  0  0  0  0  0  0  0  0  0  0
   -1.6817    2.6983    2.1469 C   0  0  0  0  0  0  0  0  0  0  0  0
   -1.3091    2.0520    3.3286 C   0  0  0  0  0  0  0  0  0  0  0  0
   -1.7629    2.5923    4.5332 C   0  0  0  0  0  0  0  0  0  0  0  0
   -2.5641    3.7485    4.5598 C   0  0  0  0  0  0  0  0  0  0  0  0
   -2.9293    4.3889    3.3758 C   0  0  0  0  0  0  0  0  0  0  0  0
   -2.4898    3.8642    2.1522 C   0  0  0  0  0  0  0  0  0  0  0  0
   -2.6739    4.2572    0.7664 C   0  0  0  0  0  0  0  0  0  0  0  0
   -3.3745    5.2972    0.1393 C   0  0  0  0  0  0  0  0  0  0  0  0
   -3.3640    5.3804   -1.2528 C   0  0  0  0  0  0  0  0  0  0  0  0
   -2.6631    4.4347   -2.0230 C   0  0  0  0  0  0  0  0  0  0  0  0
   -1.9559    3.3908   -1.4234 C   0  0  0  0  0  0  0  0  0  0  0  0
   -1.9667    3.3180   -0.0278 C   0  0  0  0  0  0  0  0  0  0  0  0
   -1.2340   -0.0296    0.5520 C   0  0  0  0  0  0  0  0  0  0  0  0
   -2.4420   -0.1154    1.0938 F   0  0  0  0  0  0  0  0  0  0  0  0
   -0.5951   -1.2136    0.1456 C   0  0  0  0  0  0  0  0  0  0  0  0
   -1.2090   -2.4643    0.2940 N   0  0  0  0  0  0  0  0  0  0  0  0
   -0.6955   -3.5492    1.0260 C   0  0  0  0  0  0  0  0  0  0  0  0
    0.4801   -3.6385    1.7766 C   0  0  0  0  0  0  0  0  0  0  0  0
    0.7406   -4.8430    2.4328 C   0  0  0  0  0  0  0  0  0  0  0  0
   -0.1484   -5.9296    2.3482 C   0  0  0  0  0  0  0  0  0  0  0  0
   -1.3242   -5.8294    1.6049 C   0  0  0  0  0  0  0  0  0  0  0  0
   -1.6081   -4.6307    0.9360 C   0  0  0  0  0  0  0  0  0  0  0  0
   -2.7166   -4.1842    0.1107 C   0  0  0  0  0  0  0  0  0  0  0  0
   -3.8909   -4.8002   -0.3439 C   0  0  0  0  0  0  0  0  0  0  0  0
   -4.7624   -4.0800   -1.1604 C   0  0  0  0  0  0  0  0  0  0  0  0
   -4.4683   -2.7551   -1.5297 C   0  0  0  0  0  0  0  0  0  0  0  0
   -3.3051   -2.1199   -1.0907 C   0  0  0  0  0  0  0  0  0  0  0  0
   -2.4414   -2.8450   -0.2650 C   0  0  0  0  0  0  0  0  0  0  0  0
    0.6868   -1.0872   -0.4165 C   0  0  0  0  0  0  0  0  0  0  0  0
    1.3141   -2.1854   -0.8172 F   0  0  0  0  0  0  0  0  0  0  0  0
    1.3290    0.1487   -0.5682 C   0  0  0  0  0  0  0  0  0  0  0  0
    2.6209    0.1989   -1.1260 N   0  0  0  0  0  0  0  0  0  0  0  0
    3.8100    0.4373   -0.4184 C   0  0  0  0  0  0  0  0  0  0  0  0
    3.9914    0.7535    0.9308 C   0  0  0  0  0  0  0  0  0  0  0  0
    5.2998    0.9335    1.3836 C   0  0  0  0  0  0  0  0  0  0  0  0
    6.3988    0.8005    0.5158 C   0  0  0  0  0  0  0  0  0  0  0  0
    6.2095    0.4790   -0.8280 C   0  0  0  0  0  0  0  0  0  0  0  0
    4.9056    0.2910   -1.3078 C   0  0  0  0  0  0  0  0  0  0  0  0
    4.3548   -0.0609   -2.6046 C   0  0  0  0  0  0  0  0  0  0  0  0
    4.9210   -0.3252   -3.8597 C   0  0  0  0  0  0  0  0  0  0  0  0
    4.0839   -0.6438   -4.9288 C   0  0  0  0  0  0  0  0  0  0  0  0
    2.6886   -0.6981   -4.7571 C   0  0  0  0  0  0  0  0  0  0  0  0
    2.0995   -0.4355   -3.5189 C   0  0  0  0  0  0  0  0  0  0  0  0
    2.9456   -0.1196   -2.4524 C   0  0  0  0  0  0  0  0  0  0  0  0
   -0.6851    1.1560    3.3172 H   0  0  0  0  0  0  0  0  0  0  0  0
   -1.4878    2.1062    5.4725 H   0  0  0  0  0  0  0  0  0  0  0  0
   -2.9017    4.1473    5.5192 H   0  0  0  0  0  0  0  0  0  0  0  0
   -3.5498    5.2881    3.4010 H   0  0  0  0  0  0  0  0  0  0  0  0
   -3.9242    6.0308    0.7341 H   0  0  0  0  0  0  0  0  0  0  0  0
   -3.9052    6.1871   -1.7527 H   0  0  0  0  0  0  0  0  0  0  0  0
   -2.6673    4.5179   -3.1126 H   0  0  0  0  0  0  0  0  0  0  0  0
   -1.4110    2.6647   -2.0298 H   0  0  0  0  0  0  0  0  0  0  0  0
    1.1783   -2.8034    1.8524 H   0  0  0  0  0  0  0  0  0  0  0  0
    1.6552   -4.9397    3.0229 H   0  0  0  0  0  0  0  0  0  0  0  0
    0.0852   -6.8589    2.8730 H   0  0  0  0  0  0  0  0  0  0  0  0
   -2.0173   -6.6722    1.5473 H   0  0  0  0  0  0  0  0  0  0  0  0
   -4.1175   -5.8321   -0.0649 H   0  0  0  0  0  0  0  0  0  0  0  0
   -5.6816   -4.5481   -1.5203 H   0  0  0  0  0  0  0  0  0  0  0  0
   -5.1620   -2.2083   -2.1730 H   0  0  0  0  0  0  0  0  0  0  0  0
   -3.0892   -1.0919   -1.3864 H   0  0  0  0  0  0  0  0  0  0  0  0
    3.1448    0.8636    1.6112 H   0  0  0  0  0  0  0  0  0  0  0  0
    5.4697    1.1861    2.4331 H   0  0  0  0  0  0  0  0  0  0  0  0
    7.4101    0.9508    0.9009 H   0  0  0  0  0  0  0  0  0  0  0  0
    7.0660    0.3719   -1.4981 H   0  0  0  0  0  0  0  0  0  0  0  0
    6.0041   -0.2817   -3.9980 H   0  0  0  0  0  0  0  0  0  0  0  0
    4.5137   -0.8530   -5.9112 H   0  0  0  0  0  0  0  0  0  0  0  0
    2.0507   -0.9494   -5.6081 H   0  0  0  0  0  0  0  0  0  0  0  0
    1.0154   -0.4767   -3.3951 H   0  0  0  0  0  0  0  0  0  0  0  0
  1  2  3  0
  2  3  1  0
  3  4  2  0
  3 36  1  0
  4  5  1  0
  4 18  1  0
  5  6  1  0
  5 17  1  0
  6  7  2  0
  6 11  1  0
  7  8  1  0
  7 50  1  0
  8  9  2  0
  8 51  1  0
  9 10  1  0
  9 52  1  0
 10 11  2  0
 10 53  1  0
 11 12  1  0
 12 13  1  0
 12 17  2  0
 13 14  2  0
 13 54  1  0
 14 15  1  0
 14 55  1  0
 15 16  2  0
 15 56  1  0
 16 17  1  0
 16 57  1  0
 18 19  1  0
 18 20  2  0
 20 21  1  0
 20 34  1  0
 21 22  1  0
 21 33  1  0
 22 23  2  0
 22 27  1  0
 23 24  1  0
 23 58  1  0
 24 25  2  0
 24 59  1  0
 25 26  1  0
 25 60  1  0
 26 27  2  0
 26 61  1  0
 27 28  1  0
 28 29  1  0
 28 33  2  0
 29 30  2  0
 29 62  1  0
 30 31  1  0
 30 63  1  0
 31 32  2  0
 31 64  1  0
 32 33  1  0
 32 65  1  0
 34 35  1  0
 34 36  2  0
 36 37  1  0
 37 38  1  0
 37 49  1  0
 38 39  2  0
 38 43  1  0
 39 40  1  0
 39 66  1  0
 40 41  2  0
 40 67  1  0
 41 42  1  0
 41 68  1  0
 42 43  2  0
 42 69  1  0
 43 44  1  0
 44 45  1  0
 44 49  2  0
 45 46  2  0
 45 70  1  0
 46 47  1  0
 46 71  1  0
 47 48  2  0
 47 72  1  0
 48 49  1  0
 48 73  1  0
M  END

