
     RDKit          3D

 43 44  0  0  0  0  0  0  0  0999 V2000
    2.9516   -1.1298    3.1643 C   0  0  0  0  0  0  0  0  0  0  0  0
    2.2222   -1.8685    2.0389 C   0  0  1  0  0  0  0  0  0  0  0  0
    1.6688   -3.2214    2.4948 C   0  0  0  0  0  0  0  0  0  0  0  0
    1.1152   -0.9987    1.4423 C   0  0  0  0  0  0  0  0  0  0  0  0
    3.1329   -2.0619    0.8960 O   0  0  0  0  0  0  0  0  0  0  0  0
    4.2565   -2.7902    0.9879 C   0  0  0  0  0  0  0  0  0  0  0  0
    4.6710   -3.3467    1.9817 O   0  0  0  0  0  0  0  0  0  0  0  0
    4.8623   -2.8246   -0.2618 N   0  0  0  0  0  0  0  0  0  0  0  0
    6.2662   -3.1874   -0.4979 C   0  0  1  0  0  0  0  0  0  0  0  0
    6.4392   -3.2527   -2.0370 C   0  0  0  0  0  0  0  0  0  0  0  0
    7.4135   -2.8693   -2.6199 O   0  0  0  0  0  0  0  0  0  0  0  0
    5.4033   -3.8185   -2.6881 O   0  0  0  0  0  0  0  0  0  0  0  0
    7.3134   -2.2554    0.1417 C   0  0  0  0  0  0  0  0  0  0  0  0
    8.5873   -3.1014    0.2149 C   0  0  0  0  0  0  0  0  0  0  0  0
    8.0897   -4.4826    0.2839 N   0  0  0  0  0  0  0  0  0  0  0  0
    9.0009   -5.5025    0.4017 C   0  0  0  0  0  0  0  0  0  0  0  0
   10.2013   -5.2585    0.4257 O   0  0  0  0  0  0  0  0  0  0  0  0
    8.5222   -6.9082    0.5007 C   0  0  0  0  0  0  0  0  0  0  0  0
    9.3832   -8.0243    0.2902 C   0  0  0  0  0  0  0  0  0  0  0  0
    8.7648   -9.1766    0.4963 N   0  0  0  0  0  0  0  0  0  0  0  0
    7.5165   -8.8301    0.8527 N   0  0  0  0  0  0  0  0  0  0  0  0
    6.8456   -9.5550    1.0790 H   0  0  0  0  0  0  0  0  0  0  0  0
    7.3117   -7.4905    0.8709 C   0  0  0  0  0  0  0  0  0  0  0  0
    6.6528   -4.5841    0.0802 C   0  0  0  0  0  0  0  0  0  0  0  0
    2.2379   -0.8841    3.9658 H   0  0  0  0  0  0  0  0  0  0  0  0
    3.3801   -0.1866    2.7908 H   0  0  0  0  0  0  0  0  0  0  0  0
    3.7569   -1.7429    3.5883 H   0  0  0  0  0  0  0  0  0  0  0  0
    0.9045   -3.0636    3.2713 H   0  0  0  0  0  0  0  0  0  0  0  0
    2.4617   -3.8572    2.9088 H   0  0  0  0  0  0  0  0  0  0  0  0
    1.1926   -3.7462    1.6517 H   0  0  0  0  0  0  0  0  0  0  0  0
    0.3547   -0.7769    2.2060 H   0  0  0  0  0  0  0  0  0  0  0  0
    0.6255   -1.5140    0.6023 H   0  0  0  0  0  0  0  0  0  0  0  0
    1.5252   -0.0467    1.0727 H   0  0  0  0  0  0  0  0  0  0  0  0
    4.5036   -2.0925   -0.8699 H   0  0  0  0  0  0  0  0  0  0  0  0
    4.6967   -4.0081   -2.0466 H   0  0  0  0  0  0  0  0  0  0  0  0
    6.9625   -1.9981    1.1524 H   0  0  0  0  0  0  0  0  0  0  0  0
    7.4538   -1.3318   -0.4365 H   0  0  0  0  0  0  0  0  0  0  0  0
    9.2064   -2.8716    1.0953 H   0  0  0  0  0  0  0  0  0  0  0  0
    9.2194   -2.9723   -0.6764 H   0  0  0  0  0  0  0  0  0  0  0  0
   10.4305   -7.9889   -0.0048 H   0  0  0  0  0  0  0  0  0  0  0  0
    6.3555   -7.0721    1.1724 H   0  0  0  0  0  0  0  0  0  0  0  0
    6.1029   -4.7391    1.0200 H   0  0  0  0  0  0  0  0  0  0  0  0
    6.3983   -5.3956   -0.6198 H   0  0  0  0  0  0  0  0  0  0  0  0
  1  2  1  0
  1 25  1  0
  1 26  1  0
  1 27  1  0
  2  3  1  0
  2  4  1  0
  2  5  1  6
  3 28  1  0
  3 29  1  0
  3 30  1  0
  4 31  1  0
  4 32  1  0
  4 33  1  0
  5  6  1  0
  6  7  2  0
  6  8  1  0
  8  9  1  0
  8 34  1  0
  9 10  1  6
  9 13  1  0
  9 24  1  0
 10 11  2  0
 10 12  1  0
 12 35  1  0
 13 14  1  0
 13 36  1  0
 13 37  1  0
 14 15  1  0
 14 38  1  0
 14 39  1  0
 15 16  1  0
 15 24  1  0
 16 17  2  0
 16 18  1  0
 18 19  1  0
 18 23  2  0
 19 20  2  0
 19 40  1  0
 20 21  1  0
 21 22  1  0
 21 23  1  0
 23 41  1  0
 24 42  1  0
 24 43  1  0
M  END

