
     RDKit          3D

 69 73  0  0  0  0  0  0  0  0999 V2000
    4.0881   -0.0665    1.9314 C   0  0  0  0  0  0  0  0  0  0  0  0
    4.0143   -0.1349    0.4348 C   0  0  0  0  0  0  0  0  0  0  0  0
    4.5614    0.7598   -0.4510 C   0  0  0  0  0  0  0  0  0  0  0  0
    4.2545    0.3617   -1.7489 N   0  0  0  0  0  0  0  0  0  0  0  0
    4.6740    1.0638   -2.8995 C   0  0  0  0  0  0  0  0  0  0  0  0
    5.8863    1.7838   -2.8854 C   0  0  0  0  0  0  0  0  0  0  0  0
    6.2425    2.4986   -4.0252 C   0  0  0  0  0  0  0  0  0  0  0  0
    5.4077    2.4612   -5.1468 C   0  0  0  0  0  0  0  0  0  0  0  0
    4.2453    1.6930   -5.0640 C   0  0  0  0  0  0  0  0  0  0  0  0
    3.8813    1.0222   -3.9696 N   0  0  0  0  0  0  0  0  0  0  0  0
    3.5035   -0.8134   -1.6942 C   0  0  0  0  0  0  0  0  0  0  0  0
    3.0260   -1.5672   -2.8946 C   0  0  0  0  0  0  0  0  0  0  0  0
    3.3498   -1.1404   -0.3554 C   0  0  0  0  0  0  0  0  0  0  0  0
    2.6235   -2.3452    0.1896 C   0  0  0  0  0  0  0  0  0  0  0  0
    1.1218   -2.3137    0.0431 C   0  0  0  0  0  0  0  0  0  0  0  0
    0.2691   -0.7732    0.1292 S   0  0  0  0  0  0  0  0  0  0  0  0
   -1.2803   -1.5626   -0.0062 C   0  0  0  0  0  0  0  0  0  0  0  0
   -1.1267   -2.9333   -0.1343 C   0  0  0  0  0  0  0  0  0  0  0  0
    0.2490   -3.3554   -0.0929 C   0  0  0  0  0  0  0  0  0  0  0  0
    0.6720   -4.8016   -0.0101 C   0  0  0  0  0  0  0  0  0  0  0  0
    0.6516   -5.4233    1.0349 O   0  0  0  0  0  0  0  0  0  0  0  0
    1.2015   -5.3451   -1.1614 N   0  0  0  0  0  0  0  0  0  0  0  0
    1.2801   -6.7733   -1.3996 C   0  0  0  0  0  0  0  0  0  0  0  0
    0.3426   -7.0128   -2.6281 C   0  0  2  0  0  0  0  0  0  0  0  0
   -0.9292   -7.7776   -2.2624 C   0  0  0  0  0  0  0  0  0  0  0  0
    1.0378   -7.6576   -3.6872 O   0  0  0  0  0  0  0  0  0  0  0  0
    0.0423   -5.5642   -3.0831 C   0  0  0  0  0  0  0  0  0  0  0  0
    0.9720   -4.7139   -2.3903 O   0  0  0  0  0  0  0  0  0  0  0  0
   -2.2809   -3.7777   -0.3756 C   0  0  0  0  0  0  0  0  0  0  0  0
   -2.2300   -4.9768   -0.6156 O   0  0  0  0  0  0  0  0  0  0  0  0
   -3.5095   -3.0891   -0.3316 N   0  0  0  0  0  0  0  0  0  0  0  0
   -4.7454   -3.8519   -0.5141 C   0  0  0  0  0  0  0  0  0  0  0  0
   -3.6763   -1.7124   -0.1654 C   0  0  0  0  0  0  0  0  0  0  0  0
   -4.7887   -1.2174   -0.1584 O   0  0  0  0  0  0  0  0  0  0  0  0
   -2.5115   -0.9388   -0.0222 N   0  0  0  0  0  0  0  0  0  0  0  0
   -2.7070    0.5307    0.1242 C   0  0  1  0  0  0  0  0  0  0  0  0
   -2.2495    1.0405    1.4946 C   0  0  0  0  0  0  0  0  0  0  0  0
   -2.1235    1.3110   -1.0583 C   0  0  0  0  0  0  0  0  0  0  0  0
    4.6365    0.8289    2.2610 H   0  0  0  0  0  0  0  0  0  0  0  0
    4.6034   -0.9440    2.3590 H   0  0  0  0  0  0  0  0  0  0  0  0
    3.0859   -0.0295    2.3919 H   0  0  0  0  0  0  0  0  0  0  0  0
    5.0987    1.6852   -0.2622 H   0  0  0  0  0  0  0  0  0  0  0  0
    6.5382    1.7610   -2.0120 H   0  0  0  0  0  0  0  0  0  0  0  0
    7.1755    3.0678   -4.0428 H   0  0  0  0  0  0  0  0  0  0  0  0
    5.6543    3.0031   -6.0620 H   0  0  0  0  0  0  0  0  0  0  0  0
    3.5669    1.6208   -5.9224 H   0  0  0  0  0  0  0  0  0  0  0  0
    3.8413   -1.7561   -3.6113 H   0  0  0  0  0  0  0  0  0  0  0  0
    2.2519   -1.0125   -3.4448 H   0  0  0  0  0  0  0  0  0  0  0  0
    2.6049   -2.5352   -2.5896 H   0  0  0  0  0  0  0  0  0  0  0  0
    2.8725   -2.4583    1.2588 H   0  0  0  0  0  0  0  0  0  0  0  0
    2.9769   -3.2697   -0.2958 H   0  0  0  0  0  0  0  0  0  0  0  0
    0.9761   -7.2952   -0.4831 H   0  0  0  0  0  0  0  0  0  0  0  0
    2.3044   -7.0635   -1.6816 H   0  0  0  0  0  0  0  0  0  0  0  0
   -0.6833   -8.7960   -1.9149 H   0  0  0  0  0  0  0  0  0  0  0  0
   -1.5841   -7.8672   -3.1438 H   0  0  0  0  0  0  0  0  0  0  0  0
   -1.4821   -7.2607   -1.4645 H   0  0  0  0  0  0  0  0  0  0  0  0
    1.1329   -8.5923   -3.4600 H   0  0  0  0  0  0  0  0  0  0  0  0
   -0.9886   -5.2750   -2.8258 H   0  0  0  0  0  0  0  0  0  0  0  0
    0.2299   -5.4465   -4.1580 H   0  0  0  0  0  0  0  0  0  0  0  0
   -4.4708   -4.9067   -0.6113 H   0  0  0  0  0  0  0  0  0  0  0  0
   -5.2763   -3.5102   -1.4145 H   0  0  0  0  0  0  0  0  0  0  0  0
   -5.4105   -3.7015    0.3476 H   0  0  0  0  0  0  0  0  0  0  0  0
   -3.7976    0.6311    0.0817 H   0  0  0  0  0  0  0  0  0  0  0  0
   -1.1597    0.9844    1.6338 H   0  0  0  0  0  0  0  0  0  0  0  0
   -2.7307    0.4697    2.3033 H   0  0  0  0  0  0  0  0  0  0  0  0
   -2.5447    2.0957    1.6039 H   0  0  0  0  0  0  0  0  0  0  0  0
   -1.0249    1.2723   -1.1018 H   0  0  0  0  0  0  0  0  0  0  0  0
   -2.4158    2.3692   -0.9718 H   0  0  0  0  0  0  0  0  0  0  0  0
   -2.5197    0.9284   -2.0113 H   0  0  0  0  0  0  0  0  0  0  0  0
  1  2  1  0
  1 39  1  0
  1 40  1  0
  1 41  1  0
  2  3  2  0
  2 13  1  0
  3  4  1  0
  3 42  1  0
  4  5  1  0
  4 11  1  0
  5  6  2  0
  5 10  1  0
  6  7  1  0
  6 43  1  0
  7  8  2  0
  7 44  1  0
  8  9  1  0
  8 45  1  0
  9 10  2  0
  9 46  1  0
 11 12  1  0
 11 13  2  0
 12 47  1  0
 12 48  1  0
 12 49  1  0
 13 14  1  0
 14 15  1  0
 14 50  1  0
 14 51  1  0
 15 16  1  0
 15 19  2  0
 16 17  2  0
 17 18  1  0
 17 35  1  0
 18 19  1  0
 18 29  2  0
 19 20  1  0
 20 21  2  0
 20 22  1  0
 22 23  1  0
 22 28  1  0
 23 24  1  0
 23 52  1  0
 23 53  1  0
 24 25  1  0
 24 26  1  6
 24 27  1  0
 25 54  1  0
 25 55  1  0
 25 56  1  0
 26 57  1  0
 27 28  1  0
 27 58  1  0
 27 59  1  0
 29 30  1  0
 29 31  1  0
 31 32  1  0
 31 33  1  0
 32 60  1  0
 32 61  1  0
 32 62  1  0
 33 34  2  0
 33 35  1  0
 35 36  1  0
 36 37  1  0
 36 38  1  0
 36 63  1  1
 37 64  1  0
 37 65  1  0
 37 66  1  0
 38 67  1  0
 38 68  1  0
 38 69  1  0
M  CHG  2  16   1  30  -1
M  END

