
     RDKit          3D

 44 45  0  0  0  0  0  0  0  0999 V2000
    0.8824    0.0188    0.0256 C   0  0  0  0  0  0  0  0  0  0  0  0
    2.3920   -0.2412   -0.0813 C   0  0  1  0  0  0  0  0  0  0  0  0
    2.7143   -1.6497   -0.6245 C   0  0  0  0  0  0  0  0  0  0  0  0
    2.4366   -1.7897   -2.1276 C   0  0  0  0  0  0  0  0  0  0  0  0
    3.1587   -0.7041   -2.9359 C   0  0  0  0  0  0  0  0  0  0  0  0
    2.8301    0.7133   -2.4331 C   0  0  2  0  0  0  0  0  0  0  0  0
    3.5244    1.7985   -3.2597 C   0  0  0  0  0  0  0  0  0  0  0  0
    3.1170    0.8505   -0.9143 C   0  0  2  0  0  0  0  0  0  0  0  0
    4.5490    0.8617   -0.6257 N   0  0  0  0  0  0  0  0  0  0  0  0
    5.1987    1.9428   -0.0955 C   0  0  0  0  0  0  0  0  0  0  0  0
    4.6328    2.9861    0.1924 O   0  0  0  0  0  0  0  0  0  0  0  0
    6.7062    1.7685    0.0861 C   0  0  0  0  0  0  0  0  0  0  0  0
    7.2294    2.4999    1.3335 C   0  0  0  0  0  0  0  0  0  0  0  0
    8.7265    2.4933    1.4565 C   0  0  0  0  0  0  0  0  0  0  0  0
    9.5747    1.4527    1.9207 C   0  0  0  0  0  0  0  0  0  0  0  0
   10.8606    1.7897    1.8624 N   0  0  0  0  0  0  0  0  0  0  0  0
   10.8739    3.0320    1.3612 N   0  0  0  0  0  0  0  0  0  0  0  0
   12.1296    3.7380    1.2229 C   0  0  0  0  0  0  0  0  0  0  0  0
    9.6189    3.4981    1.1066 C   0  0  0  0  0  0  0  0  0  0  0  0
    0.4090   -0.7188    0.6936 H   0  0  0  0  0  0  0  0  0  0  0  0
    0.3669   -0.0426   -0.9455 H   0  0  0  0  0  0  0  0  0  0  0  0
    0.6846    1.0200    0.4408 H   0  0  0  0  0  0  0  0  0  0  0  0
    2.8025   -0.1702    0.9405 H   0  0  0  0  0  0  0  0  0  0  0  0
    2.1494   -2.4072   -0.0552 H   0  0  0  0  0  0  0  0  0  0  0  0
    3.7813   -1.8739   -0.4375 H   0  0  0  0  0  0  0  0  0  0  0  0
    1.3508   -1.7205   -2.3157 H   0  0  0  0  0  0  0  0  0  0  0  0
    2.7409   -2.7913   -2.4751 H   0  0  0  0  0  0  0  0  0  0  0  0
    2.9009   -0.7866   -4.0055 H   0  0  0  0  0  0  0  0  0  0  0  0
    4.2528   -0.8675   -2.8813 H   0  0  0  0  0  0  0  0  0  0  0  0
    1.7403    0.8551   -2.5484 H   0  0  0  0  0  0  0  0  0  0  0  0
    4.6203    1.6900   -3.2210 H   0  0  0  0  0  0  0  0  0  0  0  0
    3.2792    2.8058   -2.8881 H   0  0  0  0  0  0  0  0  0  0  0  0
    3.2209    1.7407   -4.3176 H   0  0  0  0  0  0  0  0  0  0  0  0
    2.7678    1.8380   -0.5793 H   0  0  0  0  0  0  0  0  0  0  0  0
    5.0946    0.0326   -0.8252 H   0  0  0  0  0  0  0  0  0  0  0  0
    7.1913    2.1919   -0.8115 H   0  0  0  0  0  0  0  0  0  0  0  0
    6.9830    0.7011    0.1123 H   0  0  0  0  0  0  0  0  0  0  0  0
    6.7802    2.0408    2.2308 H   0  0  0  0  0  0  0  0  0  0  0  0
    6.8494    3.5316    1.2999 H   0  0  0  0  0  0  0  0  0  0  0  0
    9.2887    0.4701    2.2991 H   0  0  0  0  0  0  0  0  0  0  0  0
   12.8710    3.0764    0.7530 H   0  0  0  0  0  0  0  0  0  0  0  0
   12.5157    4.0575    2.2046 H   0  0  0  0  0  0  0  0  0  0  0  0
   11.9820    4.6237    0.5901 H   0  0  0  0  0  0  0  0  0  0  0  0
    9.4490    4.4962    0.7057 H   0  0  0  0  0  0  0  0  0  0  0  0
  1  2  1  0
  1 20  1  0
  1 21  1  0
  1 22  1  0
  2  3  1  0
  2  8  1  0
  2 23  1  1
  3  4  1  0
  3 24  1  0
  3 25  1  0
  4  5  1  0
  4 26  1  0
  4 27  1  0
  5  6  1  0
  5 28  1  0
  5 29  1  0
  6  7  1  0
  6  8  1  0
  6 30  1  1
  7 31  1  0
  7 32  1  0
  7 33  1  0
  8  9  1  0
  8 34  1  1
  9 10  1  0
  9 35  1  0
 10 11  2  0
 10 12  1  0
 12 13  1  0
 12 36  1  0
 12 37  1  0
 13 14  1  0
 13 38  1  0
 13 39  1  0
 14 15  1  0
 14 19  2  0
 15 16  2  0
 15 40  1  0
 16 17  1  0
 17 18  1  0
 17 19  1  0
 18 41  1  0
 18 42  1  0
 18 43  1  0
 19 44  1  0
M  END

