
     RDKit          3D

122131  0  0  0  0  0  0  0  0999 V2000
    8.0672    4.9143   -1.2406 C   0  0  0  0  0  0  0  0  0  0  0  0
    7.2851    3.6647   -0.9204 C   0  0  0  0  0  0  0  0  0  0  0  0
    7.5879    2.8860    0.2018 C   0  0  0  0  0  0  0  0  0  0  0  0
    6.9064    1.6964    0.4920 C   0  0  0  0  0  0  0  0  0  0  0  0
    7.3402    0.9336    1.7281 C   0  0  0  0  0  0  0  0  0  0  0  0
    5.8404    1.2600   -0.3464 C   0  0  0  0  0  0  0  0  0  0  0  0
    5.0363   -0.0677   -0.0197 B   0  0  0  0  0  0  0  0  0  0  0  0
    5.8091   -1.4158    0.2989 C   0  0  0  0  0  0  0  0  0  0  0  0
    5.4782   -2.2075    1.4359 C   0  0  0  0  0  0  0  0  0  0  0  0
    4.3881   -1.8174    2.4143 C   0  0  0  0  0  0  0  0  0  0  0  0
    6.1810   -3.3909    1.6989 C   0  0  0  0  0  0  0  0  0  0  0  0
    7.1978   -3.8567    0.8583 C   0  0  0  0  0  0  0  0  0  0  0  0
    7.9510   -5.1259    1.1705 C   0  0  0  0  0  0  0  0  0  0  0  0
    7.5079   -3.0865   -0.2677 C   0  0  0  0  0  0  0  0  0  0  0  0
    6.8540   -1.8798   -0.5511 C   0  0  0  0  0  0  0  0  0  0  0  0
    7.2933   -1.1289   -1.7925 C   0  0  0  0  0  0  0  0  0  0  0  0
    3.4447   -0.0470   -0.0116 C   0  0  0  0  0  0  0  0  0  0  0  0
    2.6944   -1.0161   -0.7369 C   0  0  0  0  0  0  0  0  0  0  0  0
    3.3503   -2.1087   -1.5569 C   0  0  0  0  0  0  0  0  0  0  0  0
    1.2942   -0.9705   -0.7388 C   0  0  0  0  0  0  0  0  0  0  0  0
    0.6000   -0.0087    0.0017 C   0  0  0  0  0  0  0  0  0  0  0  0
   -0.8194    0.0108    0.0078 N   0  0  0  0  0  0  0  0  0  0  0  0
   -1.6530   -1.0642    0.3316 C   0  0  0  0  0  0  0  0  0  0  0  0
   -1.3276   -2.3608    0.7515 C   0  0  0  0  0  0  0  0  0  0  0  0
   -2.3674   -3.2443    1.0298 C   0  0  0  0  0  0  0  0  0  0  0  0
   -3.7240   -2.8558    0.9246 C   0  0  0  0  0  0  0  0  0  0  0  0
   -4.7576   -3.7934    1.2204 N   0  0  0  0  0  0  0  0  0  0  0  0
   -5.8215   -3.9715    0.3006 C   0  0  0  0  0  0  0  0  0  0  0  0
   -5.5751   -3.9735   -1.0858 C   0  0  0  0  0  0  0  0  0  0  0  0
   -6.6246   -4.1317   -1.9919 C   0  0  0  0  0  0  0  0  0  0  0  0
   -7.9369   -4.3054   -1.5404 C   0  0  0  0  0  0  0  0  0  0  0  0
   -8.1869   -4.3091   -0.1643 C   0  0  0  0  0  0  0  0  0  0  0  0
   -7.1463   -4.1357    0.7493 C   0  0  0  0  0  0  0  0  0  0  0  0
   -4.7158   -4.5162    2.4378 C   0  0  0  0  0  0  0  0  0  0  0  0
   -4.2590   -3.9024    3.6201 C   0  0  0  0  0  0  0  0  0  0  0  0
   -4.1997   -4.6216    4.8149 C   0  0  0  0  0  0  0  0  0  0  0  0
   -4.6055   -5.9588    4.8641 C   0  0  0  0  0  0  0  0  0  0  0  0
   -5.0648   -6.5724    3.6938 C   0  0  0  0  0  0  0  0  0  0  0  0
   -5.1130   -5.8669    2.4910 C   0  0  0  0  0  0  0  0  0  0  0  0
   -4.0404   -1.5508    0.5289 C   0  0  0  0  0  0  0  0  0  0  0  0
   -3.0090   -0.6547    0.2214 C   0  0  0  0  0  0  0  0  0  0  0  0
   -2.9916    0.7354   -0.1914 C   0  0  0  0  0  0  0  0  0  0  0  0
   -4.0002    1.6591   -0.4926 C   0  0  0  0  0  0  0  0  0  0  0  0
   -3.6512    2.9548   -0.8910 C   0  0  0  0  0  0  0  0  0  0  0  0
   -4.6610    3.9198   -1.1814 N   0  0  0  0  0  0  0  0  0  0  0  0
   -5.7146    4.1266   -0.2559 C   0  0  0  0  0  0  0  0  0  0  0  0
   -7.0371    4.3253   -0.6973 C   0  0  0  0  0  0  0  0  0  0  0  0
   -8.0676    4.5268    0.2220 C   0  0  0  0  0  0  0  0  0  0  0  0
   -7.8101    4.5177    1.5966 C   0  0  0  0  0  0  0  0  0  0  0  0
   -6.5003    4.3098    2.0409 C   0  0  0  0  0  0  0  0  0  0  0  0
   -5.4604    4.1233    1.1292 C   0  0  0  0  0  0  0  0  0  0  0  0
   -4.6071    4.6402   -2.3998 C   0  0  0  0  0  0  0  0  0  0  0  0
   -4.9687    6.0009   -2.4522 C   0  0  0  0  0  0  0  0  0  0  0  0
   -4.9089    6.7037   -3.6560 C   0  0  0  0  0  0  0  0  0  0  0  0
   -4.4727    6.0772   -4.8283 C   0  0  0  0  0  0  0  0  0  0  0  0
   -4.1023    4.7297   -4.7800 C   0  0  0  0  0  0  0  0  0  0  0  0
   -4.1736    4.0134   -3.5841 C   0  0  0  0  0  0  0  0  0  0  0  0
   -2.2854    3.3066   -1.0049 C   0  0  0  0  0  0  0  0  0  0  0  0
   -1.2680    2.3953   -0.7330 C   0  0  0  0  0  0  0  0  0  0  0  0
   -1.6256    1.1081   -0.3106 C   0  0  0  0  0  0  0  0  0  0  0  0
    1.3267    0.9338    0.7358 C   0  0  0  0  0  0  0  0  0  0  0  0
    2.7275    0.9417    0.7207 C   0  0  0  0  0  0  0  0  0  0  0  0
    3.4203    2.0164    1.5339 C   0  0  0  0  0  0  0  0  0  0  0  0
    5.5173    2.0608   -1.4794 C   0  0  0  0  0  0  0  0  0  0  0  0
    4.4065    1.6996   -2.4455 C   0  0  0  0  0  0  0  0  0  0  0  0
    6.2474    3.2258   -1.7498 C   0  0  0  0  0  0  0  0  0  0  0  0
    8.4546    5.3948   -0.3290 H   0  0  0  0  0  0  0  0  0  0  0  0
    7.4526    5.6497   -1.7824 H   0  0  0  0  0  0  0  0  0  0  0  0
    8.9371    4.6833   -1.8809 H   0  0  0  0  0  0  0  0  0  0  0  0
    8.3863    3.2134    0.8752 H   0  0  0  0  0  0  0  0  0  0  0  0
    6.4925    0.6261    2.3586 H   0  0  0  0  0  0  0  0  0  0  0  0
    7.8830    0.0120    1.4672 H   0  0  0  0  0  0  0  0  0  0  0  0
    8.0068    1.5501    2.3493 H   0  0  0  0  0  0  0  0  0  0  0  0
    3.3841   -1.9689    1.9882 H   0  0  0  0  0  0  0  0  0  0  0  0
    4.4553   -2.4218    3.3310 H   0  0  0  0  0  0  0  0  0  0  0  0
    4.4439   -0.7598    2.7129 H   0  0  0  0  0  0  0  0  0  0  0  0
    5.9202   -3.9722    2.5890 H   0  0  0  0  0  0  0  0  0  0  0  0
    8.8344   -4.9169    1.7998 H   0  0  0  0  0  0  0  0  0  0  0  0
    8.3145   -5.6172    0.2549 H   0  0  0  0  0  0  0  0  0  0  0  0
    7.3242   -5.8444    1.7208 H   0  0  0  0  0  0  0  0  0  0  0  0
    8.2899   -3.4346   -0.9499 H   0  0  0  0  0  0  0  0  0  0  0  0
    7.8617   -0.2209   -1.5383 H   0  0  0  0  0  0  0  0  0  0  0  0
    7.9374   -1.7622   -2.4204 H   0  0  0  0  0  0  0  0  0  0  0  0
    6.4467   -0.8008   -2.4141 H   0  0  0  0  0  0  0  0  0  0  0  0
    4.1687   -1.7306   -2.1871 H   0  0  0  0  0  0  0  0  0  0  0  0
    3.7871   -2.8884   -0.9141 H   0  0  0  0  0  0  0  0  0  0  0  0
    2.6173   -2.5910   -2.2201 H   0  0  0  0  0  0  0  0  0  0  0  0
    0.7303   -1.6911   -1.3348 H   0  0  0  0  0  0  0  0  0  0  0  0
   -0.2898   -2.6814    0.8509 H   0  0  0  0  0  0  0  0  0  0  0  0
   -2.1365   -4.2645    1.3423 H   0  0  0  0  0  0  0  0  0  0  0  0
   -4.5530   -3.8493   -1.4481 H   0  0  0  0  0  0  0  0  0  0  0  0
   -6.4101   -4.1305   -3.0640 H   0  0  0  0  0  0  0  0  0  0  0  0
   -8.7553   -4.4342   -2.2525 H   0  0  0  0  0  0  0  0  0  0  0  0
   -9.2080   -4.4336    0.2063 H   0  0  0  0  0  0  0  0  0  0  0  0
   -7.3558   -4.1244    1.8204 H   0  0  0  0  0  0  0  0  0  0  0  0
   -3.9515   -2.8555    3.5959 H   0  0  0  0  0  0  0  0  0  0  0  0
   -3.8429   -4.1240    5.7208 H   0  0  0  0  0  0  0  0  0  0  0  0
   -4.5634   -6.5168    5.8025 H   0  0  0  0  0  0  0  0  0  0  0  0
   -5.3776   -7.6199    3.7115 H   0  0  0  0  0  0  0  0  0  0  0  0
   -5.4588   -6.3612    1.5814 H   0  0  0  0  0  0  0  0  0  0  0  0
   -5.0855   -1.2424    0.4624 H   0  0  0  0  0  0  0  0  0  0  0  0
   -5.0529    1.3790   -0.4194 H   0  0  0  0  0  0  0  0  0  0  0  0
   -7.2528    4.3187   -1.7672 H   0  0  0  0  0  0  0  0  0  0  0  0
   -9.0872    4.6780   -0.1430 H   0  0  0  0  0  0  0  0  0  0  0  0
   -8.6208    4.6686    2.3132 H   0  0  0  0  0  0  0  0  0  0  0  0
   -6.2799    4.3038    3.1118 H   0  0  0  0  0  0  0  0  0  0  0  0
   -4.4400    3.9724    1.4859 H   0  0  0  0  0  0  0  0  0  0  0  0
   -5.2960    6.5049   -1.5411 H   0  0  0  0  0  0  0  0  0  0  0  0
   -5.1939    7.7592   -3.6729 H   0  0  0  0  0  0  0  0  0  0  0  0
   -4.4213    6.6330   -5.7674 H   0  0  0  0  0  0  0  0  0  0  0  0
   -3.7640    4.2220   -5.6873 H   0  0  0  0  0  0  0  0  0  0  0  0
   -3.8939    2.9587   -3.5606 H   0  0  0  0  0  0  0  0  0  0  0  0
   -2.0290    4.3201   -1.3193 H   0  0  0  0  0  0  0  0  0  0  0  0
   -0.2226    2.6878   -0.8391 H   0  0  0  0  0  0  0  0  0  0  0  0
    0.7881    1.6693    1.3368 H   0  0  0  0  0  0  0  0  0  0  0  0
    2.7075    2.5166    2.2057 H   0  0  0  0  0  0  0  0  0  0  0  0
    4.2361    1.6170    2.1544 H   0  0  0  0  0  0  0  0  0  0  0  0
    3.8694    2.7854    0.8866 H   0  0  0  0  0  0  0  0  0  0  0  0
    4.4304    0.6407   -2.7436 H   0  0  0  0  0  0  0  0  0  0  0  0
    4.4799    2.3014   -3.3634 H   0  0  0  0  0  0  0  0  0  0  0  0
    3.4117    1.8784   -2.0085 H   0  0  0  0  0  0  0  0  0  0  0  0
    5.9916    3.8142   -2.6367 H   0  0  0  0  0  0  0  0  0  0  0  0
  1  2  1  0
  1 67  1  0
  1 68  1  0
  1 69  1  0
  2  3  2  0
  2 66  1  0
  3  4  1  0
  3 70  1  0
  4  5  1  0
  4  6  2  0
  5 71  1  0
  5 72  1  0
  5 73  1  0
  6  7  1  0
  6 64  1  0
  7  8  1  0
  7 17  1  0
  8  9  2  0
  8 15  1  0
  9 10  1  0
  9 11  1  0
 10 74  1  0
 10 75  1  0
 10 76  1  0
 11 12  2  0
 11 77  1  0
 12 13  1  0
 12 14  1  0
 13 78  1  0
 13 79  1  0
 13 80  1  0
 14 15  2  0
 14 81  1  0
 15 16  1  0
 16 82  1  0
 16 83  1  0
 16 84  1  0
 17 18  2  0
 17 62  1  0
 18 19  1  0
 18 20  1  0
 19 85  1  0
 19 86  1  0
 19 87  1  0
 20 21  2  0
 20 88  1  0
 21 22  1  0
 21 61  1  0
 22 23  1  0
 22 60  1  0
 23 24  2  0
 23 41  1  0
 24 25  1  0
 24 89  1  0
 25 26  2  0
 25 90  1  0
 26 27  1  0
 26 40  1  0
 27 28  1  0
 27 34  1  0
 28 29  2  0
 28 33  1  0
 29 30  1  0
 29 91  1  0
 30 31  2  0
 30 92  1  0
 31 32  1  0
 31 93  1  0
 32 33  2  0
 32 94  1  0
 33 95  1  0
 34 35  2  0
 34 39  1  0
 35 36  1  0
 35 96  1  0
 36 37  2  0
 36 97  1  0
 37 38  1  0
 37 98  1  0
 38 39  2  0
 38 99  1  0
 39100  1  0
 40 41  2  0
 40101  1  0
 41 42  1  0
 42 43  1  0
 42 60  2  0
 43 44  2  0
 43102  1  0
 44 45  1  0
 44 58  1  0
 45 46  1  0
 45 52  1  0
 46 47  2  0
 46 51  1  0
 47 48  1  0
 47103  1  0
 48 49  2  0
 48104  1  0
 49 50  1  0
 49105  1  0
 50 51  2  0
 50106  1  0
 51107  1  0
 52 53  2  0
 52 57  1  0
 53 54  1  0
 53108  1  0
 54 55  2  0
 54109  1  0
 55 56  1  0
 55110  1  0
 56 57  2  0
 56111  1  0
 57112  1  0
 58 59  2  0
 58113  1  0
 59 60  1  0
 59114  1  0
 61 62  2  0
 61115  1  0
 62 63  1  0
 63116  1  0
 63117  1  0
 63118  1  0
 64 65  1  0
 64 66  2  0
 65119  1  0
 65120  1  0
 65121  1  0
 66122  1  0
M  END

