
     RDKit          3D

 44 44  0  0  0  0  0  0  0  0999 V2000
    2.6601   -0.8797   -1.6254 C   0  0  0  0  0  0  0  0  0  0  0  0
    2.0843   -0.4070   -0.2876 C   0  0  1  0  0  0  0  0  0  0  0  0
    0.5742   -0.6640   -0.2052 C   0  0  0  0  0  0  0  0  0  0  0  0
    2.7839   -1.0560    0.9298 C   0  0  0  0  0  0  0  0  0  0  0  0
    4.2278   -0.9084    1.0118 N   0  0  0  0  0  0  0  0  0  0  0  0
    4.8435    0.3810    0.9280 C   0  0  0  0  0  0  0  0  0  0  0  0
    5.1204    1.2032    2.2500 C   0  0  1  0  0  0  0  0  0  0  0  0
    3.8413    1.3552    3.1021 C   0  0  0  0  0  0  0  0  0  0  0  0
    6.1393    0.4946    3.0605 C   0  0  0  0  0  0  0  0  0  0  0  0
    6.9231   -0.0636    3.7067 N   0  0  0  0  0  0  0  0  0  0  0  0
    5.7166    2.4637    1.7964 N   0  0  0  0  0  0  0  0  0  0  0  0
    6.1624    3.4201    2.7723 C   0  0  1  0  0  0  0  0  0  0  0  0
    6.3123    4.8574    2.3750 C   0  0  0  0  0  0  0  0  0  0  0  0
    5.2650    4.4734    3.3983 C   0  0  0  0  0  0  0  0  0  0  0  0
    5.0667   -2.0900    1.2596 C   0  0  1  0  0  0  0  0  0  0  0  0
    4.7194   -2.8219    2.5666 C   0  0  0  0  0  0  0  0  0  0  0  0
    5.0875   -3.0629    0.0681 C   0  0  0  0  0  0  0  0  0  0  0  0
    2.1658   -0.3734   -2.4704 H   0  0  0  0  0  0  0  0  0  0  0  0
    2.5136   -1.9654   -1.7560 H   0  0  0  0  0  0  0  0  0  0  0  0
    3.7402   -0.6819   -1.6955 H   0  0  0  0  0  0  0  0  0  0  0  0
    2.2271    0.6883   -0.2254 H   0  0  0  0  0  0  0  0  0  0  0  0
    0.3509   -1.7422   -0.2827 H   0  0  0  0  0  0  0  0  0  0  0  0
    0.0370   -0.1558   -1.0219 H   0  0  0  0  0  0  0  0  0  0  0  0
    0.1513   -0.3051    0.7475 H   0  0  0  0  0  0  0  0  0  0  0  0
    2.5655   -2.1353    0.8933 H   0  0  0  0  0  0  0  0  0  0  0  0
    2.2689   -0.6886    1.8419 H   0  0  0  0  0  0  0  0  0  0  0  0
    4.2160    1.0497    0.3128 H   0  0  0  0  0  0  0  0  0  0  0  0
    5.8154    0.3166    0.4102 H   0  0  0  0  0  0  0  0  0  0  0  0
    3.4619    0.3738    3.4194 H   0  0  0  0  0  0  0  0  0  0  0  0
    3.0607    1.8576    2.5085 H   0  0  0  0  0  0  0  0  0  0  0  0
    4.0353    1.9571    4.0007 H   0  0  0  0  0  0  0  0  0  0  0  0
    5.1263    2.8920    1.0862 H   0  0  0  0  0  0  0  0  0  0  0  0
    6.9491    3.0132    3.4173 H   0  0  0  0  0  0  0  0  0  0  0  0
    5.9656    5.1456    1.3766 H   0  0  0  0  0  0  0  0  0  0  0  0
    7.2032    5.4001    2.7027 H   0  0  0  0  0  0  0  0  0  0  0  0
    4.2187    4.5056    3.0795 H   0  0  0  0  0  0  0  0  0  0  0  0
    5.4251    4.7501    4.4451 H   0  0  0  0  0  0  0  0  0  0  0  0
    6.0910   -1.7044    1.3782 H   0  0  0  0  0  0  0  0  0  0  0  0
    3.7075   -3.2584    2.5331 H   0  0  0  0  0  0  0  0  0  0  0  0
    4.7761   -2.1415    3.4287 H   0  0  0  0  0  0  0  0  0  0  0  0
    5.4266   -3.6477    2.7452 H   0  0  0  0  0  0  0  0  0  0  0  0
    4.0940   -3.5041   -0.1155 H   0  0  0  0  0  0  0  0  0  0  0  0
    5.7852   -3.8947    0.2575 H   0  0  0  0  0  0  0  0  0  0  0  0
    5.4060   -2.5519   -0.8534 H   0  0  0  0  0  0  0  0  0  0  0  0
  1  2  1  0
  1 18  1  0
  1 19  1  0
  1 20  1  0
  2  3  1  0
  2  4  1  0
  2 21  1  1
  3 22  1  0
  3 23  1  0
  3 24  1  0
  4  5  1  0
  4 25  1  0
  4 26  1  0
  5  6  1  0
  5 15  1  0
  6  7  1  0
  6 27  1  0
  6 28  1  0
  7  8  1  0
  7  9  1  1
  7 11  1  0
  8 29  1  0
  8 30  1  0
  8 31  1  0
  9 10  3  0
 11 12  1  0
 11 32  1  0
 12 13  1  0
 12 14  1  0
 12 33  1  1
 13 14  1  0
 13 34  1  0
 13 35  1  0
 14 36  1  0
 14 37  1  0
 15 16  1  0
 15 17  1  0
 15 38  1  1
 16 39  1  0
 16 40  1  0
 16 41  1  0
 17 42  1  0
 17 43  1  0
 17 44  1  0
M  END

