
     RDKit          3D

 58 61  0  0  0  0  0  0  0  0999 V2000
    2.6312   -0.7025    0.1632 C   0  0  0  0  0  0  0  0  0  0  0  0
    2.2560   -0.3643   -1.2672 C   0  0  1  0  0  0  0  0  0  0  0  0
    3.3409   -0.6017   -2.0706 F   0  0  0  0  0  0  0  0  0  0  0  0
    1.2736   -1.2284   -1.6765 F   0  0  0  0  0  0  0  0  0  0  0  0
    1.7802    1.0640   -1.4781 C   0  0  0  0  0  0  0  0  0  0  0  0
    2.6995    2.0617   -1.8041 C   0  0  0  0  0  0  0  0  0  0  0  0
    2.2723    3.3884   -1.9529 C   0  0  0  0  0  0  0  0  0  0  0  0
    3.2430    4.3074   -2.2266 O   0  0  0  0  0  0  0  0  0  0  0  0
    2.9378    5.5520   -2.7450 C   0  0  0  0  0  0  0  0  0  0  0  0
    3.3388    6.6816   -2.0259 C   0  0  0  0  0  0  0  0  0  0  0  0
    3.1128    7.9533   -2.5539 C   0  0  0  0  0  0  0  0  0  0  0  0
    2.4824    8.1134   -3.8000 C   0  0  0  0  0  0  0  0  0  0  0  0
    2.2527    9.5007   -4.3742 C   0  0  0  0  0  0  0  0  0  0  0  0
    3.4555   10.1367   -4.8975 N   0  0  0  0  0  0  0  0  0  0  0  0
    4.2490   10.9143   -4.1183 C   0  0  0  0  0  0  0  0  0  0  0  0
    4.0272   11.1542   -2.9389 O   0  0  0  0  0  0  0  0  0  0  0  0
    5.4990   11.4570   -4.8174 C   0  0  1  0  0  0  0  0  0  0  0  0
    5.3587   12.0013   -6.1469 N   0  0  0  0  0  0  0  0  0  0  0  0
    5.1968   11.2660   -7.2810 C   0  0  0  0  0  0  0  0  0  0  0  0
    5.0853   10.0436   -7.2688 O   0  0  0  0  0  0  0  0  0  0  0  0
    5.1615   12.0207   -8.5810 C   0  0  0  0  0  0  0  0  0  0  0  0
    5.2707   11.2905   -9.7763 C   0  0  0  0  0  0  0  0  0  0  0  0
    5.2483   11.8720  -10.9737 N   0  0  0  0  0  0  0  0  0  0  0  0
    5.1046   13.1995  -10.9885 C   0  0  0  0  0  0  0  0  0  0  0  0
    4.9721   13.9959   -9.9257 N   0  0  0  0  0  0  0  0  0  0  0  0
    4.9999   13.4046   -8.7322 C   0  0  0  0  0  0  0  0  0  0  0  0
    6.5071   12.1372   -3.9304 C   0  0  0  0  0  0  0  0  0  0  0  0
    6.8048   10.7656   -4.4575 C   0  0  0  0  0  0  0  0  0  0  0  0
    2.0894    6.9661   -4.5038 C   0  0  0  0  0  0  0  0  0  0  0  0
    2.3154    5.6868   -3.9891 C   0  0  0  0  0  0  0  0  0  0  0  0
    0.9237    3.7180   -1.7762 C   0  0  0  0  0  0  0  0  0  0  0  0
    0.0111    2.7045   -1.4639 C   0  0  0  0  0  0  0  0  0  0  0  0
   -1.4549    3.0484   -1.3445 C   0  0  1  0  0  0  0  0  0  0  0  0
   -1.6391    4.2960   -0.8776 F   0  0  0  0  0  0  0  0  0  0  0  0
   -2.0749    2.9822   -2.5384 F   0  0  0  0  0  0  0  0  0  0  0  0
   -2.1013    2.2074   -0.5194 F   0  0  0  0  0  0  0  0  0  0  0  0
    0.4259    1.3796   -1.3128 C   0  0  0  0  0  0  0  0  0  0  0  0
    2.9562   -1.7526    0.2060 H   0  0  0  0  0  0  0  0  0  0  0  0
    1.7662   -0.5616    0.8261 H   0  0  0  0  0  0  0  0  0  0  0  0
    3.4499   -0.0535    0.5039 H   0  0  0  0  0  0  0  0  0  0  0  0
    3.7543    1.8295   -1.9549 H   0  0  0  0  0  0  0  0  0  0  0  0
    3.8261    6.5472   -1.0581 H   0  0  0  0  0  0  0  0  0  0  0  0
    3.4256    8.8416   -1.9999 H   0  0  0  0  0  0  0  0  0  0  0  0
    1.8526   10.1644   -3.5945 H   0  0  0  0  0  0  0  0  0  0  0  0
    1.5115    9.4473   -5.1868 H   0  0  0  0  0  0  0  0  0  0  0  0
    3.8492    9.8102   -5.7825 H   0  0  0  0  0  0  0  0  0  0  0  0
    5.3946   13.0107   -6.2218 H   0  0  0  0  0  0  0  0  0  0  0  0
    5.3793   10.2019   -9.7307 H   0  0  0  0  0  0  0  0  0  0  0  0
    5.0900   13.6844  -11.9721 H   0  0  0  0  0  0  0  0  0  0  0  0
    4.8685   14.0703   -7.8690 H   0  0  0  0  0  0  0  0  0  0  0  0
    6.2111   12.2431   -2.8850 H   0  0  0  0  0  0  0  0  0  0  0  0
    7.0593   12.9802   -4.3558 H   0  0  0  0  0  0  0  0  0  0  0  0
    6.7422    9.9160   -3.7726 H   0  0  0  0  0  0  0  0  0  0  0  0
    7.5385   10.6572   -5.2600 H   0  0  0  0  0  0  0  0  0  0  0  0
    1.6010    7.0687   -5.4772 H   0  0  0  0  0  0  0  0  0  0  0  0
    2.0165    4.7981   -4.5488 H   0  0  0  0  0  0  0  0  0  0  0  0
    0.5874    4.7499   -1.8734 H   0  0  0  0  0  0  0  0  0  0  0  0
   -0.2964    0.5987   -1.0759 H   0  0  0  0  0  0  0  0  0  0  0  0
  1  2  1  0
  1 38  1  0
  1 39  1  0
  1 40  1  0
  2  3  1  6
  2  4  1  0
  2  5  1  0
  5  6  2  0
  5 37  1  0
  6  7  1  0
  6 41  1  0
  7  8  1  0
  7 31  2  0
  8  9  1  0
  9 10  2  0
  9 30  1  0
 10 11  1  0
 10 42  1  0
 11 12  2  0
 11 43  1  0
 12 13  1  0
 12 29  1  0
 13 14  1  0
 13 44  1  0
 13 45  1  0
 14 15  1  0
 14 46  1  0
 15 16  2  0
 17 15  1  1
 17 18  1  0
 17 27  1  0
 17 28  1  0
 18 19  1  0
 18 47  1  0
 19 20  2  0
 19 21  1  0
 21 22  2  0
 21 26  1  0
 22 23  1  0
 22 48  1  0
 23 24  2  0
 24 25  1  0
 24 49  1  0
 25 26  2  0
 26 50  1  0
 27 28  1  0
 27 51  1  0
 27 52  1  0
 28 53  1  0
 28 54  1  0
 29 30  2  0
 29 55  1  0
 30 56  1  0
 31 32  1  0
 31 57  1  0
 32 33  1  0
 32 37  2  0
 33 34  1  1
 33 35  1  0
 33 36  1  0
 37 58  1  0
M  END

