
     RDKit          3D

 45 46  0  0  0  0  0  0  0  0999 V2000
    1.6622   -0.4476   -1.3767 C   0  0  0  0  0  0  0  0  0  0  0  0
    1.9846    0.0451    0.0243 C   0  0  0  0  0  0  0  0  0  0  0  0
    2.6830    1.3033   -0.0014 O   0  0  0  0  0  0  0  0  0  0  0  0
    4.0258    1.2712   -0.1286 C   0  0  0  0  0  0  0  0  0  0  0  0
    4.6711    0.2572   -0.2104 O   0  0  0  0  0  0  0  0  0  0  0  0
    4.5672    2.6968   -0.1789 C   0  0  0  0  0  0  0  0  0  0  0  0
    6.0063    2.7654   -0.1114 N   0  0  0  0  0  0  0  0  0  0  0  0
    6.7233    2.3553   -1.3234 C   0  0  0  0  0  0  0  0  0  0  0  0
    6.8097    3.4812   -2.3694 C   0  0  0  0  0  0  0  0  0  0  0  0
    7.3629    4.7261   -1.8263 N   0  0  0  0  0  0  0  0  0  0  0  0
    8.8187    4.7743   -1.7474 C   0  0  0  0  0  0  0  0  0  0  0  0
    9.4856    4.8483   -3.1098 C   0  0  0  0  0  0  0  0  0  0  0  0
    8.9866    5.7031   -4.1102 C   0  0  0  0  0  0  0  0  0  0  0  0
    9.6186    5.8152   -5.3426 C   0  0  0  0  0  0  0  0  0  0  0  0
   10.7802    5.0696   -5.6169 C   0  0  0  0  0  0  0  0  0  0  0  0
   11.3279    5.2453   -6.8485 O   0  0  0  0  0  0  0  0  0  0  0  0
   12.4910    4.5302   -7.1923 C   0  0  0  0  0  0  0  0  0  0  0  0
   11.2882    4.2091   -4.6343 C   0  0  0  0  0  0  0  0  0  0  0  0
   10.6344    4.1072   -3.3985 C   0  0  0  0  0  0  0  0  0  0  0  0
    6.6492    5.1294   -0.6162 C   0  0  0  0  0  0  0  0  0  0  0  0
    6.5588    4.0045    0.4323 C   0  0  0  0  0  0  0  0  0  0  0  0
    1.0606   -1.3692   -1.3219 H   0  0  0  0  0  0  0  0  0  0  0  0
    2.5842   -0.6756   -1.9319 H   0  0  0  0  0  0  0  0  0  0  0  0
    1.0869    0.3057   -1.9374 H   0  0  0  0  0  0  0  0  0  0  0  0
    2.5950   -0.6908    0.5684 H   0  0  0  0  0  0  0  0  0  0  0  0
    1.0676    0.2450    0.5978 H   0  0  0  0  0  0  0  0  0  0  0  0
    4.1315    3.2281    0.6824 H   0  0  0  0  0  0  0  0  0  0  0  0
    4.0989    3.1702   -1.0726 H   0  0  0  0  0  0  0  0  0  0  0  0
    6.2426    1.4592   -1.7409 H   0  0  0  0  0  0  0  0  0  0  0  0
    7.7409    2.0450   -1.0250 H   0  0  0  0  0  0  0  0  0  0  0  0
    5.7991    3.7001   -2.7621 H   0  0  0  0  0  0  0  0  0  0  0  0
    7.4171    3.1630   -3.2313 H   0  0  0  0  0  0  0  0  0  0  0  0
    9.2724    3.9311   -1.1817 H   0  0  0  0  0  0  0  0  0  0  0  0
    9.0764    5.6848   -1.1766 H   0  0  0  0  0  0  0  0  0  0  0  0
    8.0776    6.2740   -3.9061 H   0  0  0  0  0  0  0  0  0  0  0  0
    9.2340    6.4772   -6.1217 H   0  0  0  0  0  0  0  0  0  0  0  0
   12.7525    4.8284   -8.2168 H   0  0  0  0  0  0  0  0  0  0  0  0
   12.3261    3.4372   -7.1705 H   0  0  0  0  0  0  0  0  0  0  0  0
   13.3377    4.7718   -6.5237 H   0  0  0  0  0  0  0  0  0  0  0  0
   12.1809    3.6103   -4.8163 H   0  0  0  0  0  0  0  0  0  0  0  0
   11.0398    3.4268   -2.6432 H   0  0  0  0  0  0  0  0  0  0  0  0
    5.6263    5.4361   -0.9068 H   0  0  0  0  0  0  0  0  0  0  0  0
    7.1376    6.0203   -0.1868 H   0  0  0  0  0  0  0  0  0  0  0  0
    5.9535    4.3268    1.2961 H   0  0  0  0  0  0  0  0  0  0  0  0
    7.5712    3.7855    0.8202 H   0  0  0  0  0  0  0  0  0  0  0  0
  1  2  1  0
  1 22  1  0
  1 23  1  0
  1 24  1  0
  2  3  1  0
  2 25  1  0
  2 26  1  0
  3  4  1  0
  4  5  2  0
  4  6  1  0
  6  7  1  0
  6 27  1  0
  6 28  1  0
  7  8  1  0
  7 21  1  0
  8  9  1  0
  8 29  1  0
  8 30  1  0
  9 10  1  0
  9 31  1  0
  9 32  1  0
 10 11  1  0
 10 20  1  0
 11 12  1  0
 11 33  1  0
 11 34  1  0
 12 13  2  0
 12 19  1  0
 13 14  1  0
 13 35  1  0
 14 15  2  0
 14 36  1  0
 15 16  1  0
 15 18  1  0
 16 17  1  0
 17 37  1  0
 17 38  1  0
 17 39  1  0
 18 19  2  0
 18 40  1  0
 19 41  1  0
 20 21  1  0
 20 42  1  0
 20 43  1  0
 21 44  1  0
 21 45  1  0
M  END

