
     RDKit          3D

 66 70  0  0  0  0  0  0  0  0999 V2000
    1.8017   -0.9856   -1.7397 C   0  0  0  0  0  0  0  0  0  0  0  0
    2.7425   -0.1947   -0.8885 C   0  0  0  0  0  0  0  0  0  0  0  0
    3.9865    0.3244   -1.1859 C   0  0  0  0  0  0  0  0  0  0  0  0
    4.4844    0.9913   -0.0231 C   0  0  0  0  0  0  0  0  0  0  0  0
    5.8338    1.6453    0.0769 C   0  0  1  0  0  0  0  0  0  0  0  0
    6.3919    1.4017   -0.8477 H   0  0  0  0  0  0  0  0  0  0  0  0
    5.8435    3.1984    0.2460 C   0  0  2  0  0  0  0  0  0  0  0  0
    4.8961    3.5024    0.7359 H   0  0  0  0  0  0  0  0  0  0  0  0
    5.9626    4.0081   -1.0366 C   0  0  0  0  0  0  0  0  0  0  0  0
    5.0675    3.8172   -2.1023 C   0  0  0  0  0  0  0  0  0  0  0  0
    5.2088    4.6059   -3.2434 C   0  0  0  0  0  0  0  0  0  0  0  0
    6.2249    5.5649   -3.2831 C   0  0  0  0  0  0  0  0  0  0  0  0
    7.0538    5.6895   -2.1666 C   0  0  0  0  0  0  0  0  0  0  0  0
    6.9268    4.9328   -1.0729 N   0  0  0  0  0  0  0  0  0  0  0  0
    6.9623    3.4003    1.1364 N   0  0  0  0  0  0  0  0  0  0  0  0
    7.4314    2.2596    1.7119 C   0  0  0  0  0  0  0  0  0  0  0  0
    8.7232    2.1909    2.7591 S   0  0  0  0  0  0  0  0  0  0  0  0
    6.6451    1.2199    1.2472 N   0  0  0  0  0  0  0  0  0  0  0  0
    6.7717   -0.1452    1.6135 C   0  0  0  0  0  0  0  0  0  0  0  0
    6.7995   -0.5350    2.9608 C   0  0  0  0  0  0  0  0  0  0  0  0
    6.8663   -1.8778    3.3210 C   0  0  0  0  0  0  0  0  0  0  0  0
    6.8808   -2.9057    2.3475 C   0  0  0  0  0  0  0  0  0  0  0  0
    6.8821   -4.2543    2.7077 N   0  0  0  0  0  0  0  0  0  0  0  0
    7.1261   -4.6129    4.0911 C   0  0  0  0  0  0  0  0  0  0  0  0
    7.1618   -5.2516    1.6940 C   0  0  0  0  0  0  0  0  0  0  0  0
    6.8772   -2.5007    0.9932 C   0  0  0  0  0  0  0  0  0  0  0  0
    6.8241   -1.1519    0.6411 C   0  0  0  0  0  0  0  0  0  0  0  0
    3.5159    0.8643    0.9665 C   0  0  0  0  0  0  0  0  0  0  0  0
    3.4976    1.3464    2.3835 C   0  0  0  0  0  0  0  0  0  0  0  0
    2.4628    0.1421    0.4263 N   0  0  0  0  0  0  0  0  0  0  0  0
    1.3211   -0.3461    1.1763 C   0  0  0  0  0  0  0  0  0  0  0  0
    1.5118   -1.7163    1.8189 C   0  0  0  0  0  0  0  0  0  0  0  0
    2.7687   -2.3291    1.9096 C   0  0  0  0  0  0  0  0  0  0  0  0
    2.9090   -3.5728    2.5375 C   0  0  0  0  0  0  0  0  0  0  0  0
    1.7944   -4.2185    3.0774 C   0  0  0  0  0  0  0  0  0  0  0  0
    0.5347   -3.6152    2.9869 C   0  0  0  0  0  0  0  0  0  0  0  0
    0.3964   -2.3745    2.3620 C   0  0  0  0  0  0  0  0  0  0  0  0
    2.2487   -1.1447   -2.7311 H   0  0  0  0  0  0  0  0  0  0  0  0
    0.8357   -0.4719   -1.8929 H   0  0  0  0  0  0  0  0  0  0  0  0
    1.5799   -1.9777   -1.3106 H   0  0  0  0  0  0  0  0  0  0  0  0
    4.4984    0.2262   -2.1427 H   0  0  0  0  0  0  0  0  0  0  0  0
    4.2818    3.0620   -2.0325 H   0  0  0  0  0  0  0  0  0  0  0  0
    4.5319    4.4754   -4.0919 H   0  0  0  0  0  0  0  0  0  0  0  0
    6.3707    6.2052   -4.1559 H   0  0  0  0  0  0  0  0  0  0  0  0
    7.8574    6.4350   -2.1522 H   0  0  0  0  0  0  0  0  0  0  0  0
    7.5100    4.2518    1.1194 H   0  0  0  0  0  0  0  0  0  0  0  0
    6.7839    0.2284    3.7384 H   0  0  0  0  0  0  0  0  0  0  0  0
    6.8946   -2.1210    4.3823 H   0  0  0  0  0  0  0  0  0  0  0  0
    6.3697   -4.1692    4.7588 H   0  0  0  0  0  0  0  0  0  0  0  0
    8.1235   -4.2934    4.4565 H   0  0  0  0  0  0  0  0  0  0  0  0
    7.0564   -5.7037    4.2004 H   0  0  0  0  0  0  0  0  0  0  0  0
    8.1683   -5.1432    1.2401 H   0  0  0  0  0  0  0  0  0  0  0  0
    6.4229   -5.2110    0.8769 H   0  0  0  0  0  0  0  0  0  0  0  0
    7.0962   -6.2526    2.1415 H   0  0  0  0  0  0  0  0  0  0  0  0
    6.9127   -3.2387    0.1929 H   0  0  0  0  0  0  0  0  0  0  0  0
    6.8197   -0.8910   -0.4183 H   0  0  0  0  0  0  0  0  0  0  0  0
    4.4507    1.8298    2.6302 H   0  0  0  0  0  0  0  0  0  0  0  0
    3.3590    0.5204    3.1009 H   0  0  0  0  0  0  0  0  0  0  0  0
    2.6932    2.0816    2.5647 H   0  0  0  0  0  0  0  0  0  0  0  0
    0.4463   -0.3730    0.5084 H   0  0  0  0  0  0  0  0  0  0  0  0
    1.0791    0.3924    1.9568 H   0  0  0  0  0  0  0  0  0  0  0  0
    3.6500   -1.8387    1.4910 H   0  0  0  0  0  0  0  0  0  0  0  0
    3.9008   -4.0282    2.6037 H   0  0  0  0  0  0  0  0  0  0  0  0
    1.9034   -5.1896    3.5672 H   0  0  0  0  0  0  0  0  0  0  0  0
   -0.3441   -4.1146    3.4033 H   0  0  0  0  0  0  0  0  0  0  0  0
   -0.5929   -1.9104    2.2949 H   0  0  0  0  0  0  0  0  0  0  0  0
  1  2  1  0
  1 38  1  0
  1 39  1  0
  1 40  1  0
  2  3  2  0
  2 30  1  0
  3  4  1  0
  3 41  1  0
  4  5  1  0
  4 28  2  0
  5  6  1  6
  5  7  1  0
  5 18  1  0
  7  8  1  1
  7  9  1  0
  7 15  1  0
  9 10  2  0
  9 14  1  0
 10 11  1  0
 10 42  1  0
 11 12  2  0
 11 43  1  0
 12 13  1  0
 12 44  1  0
 13 14  2  0
 13 45  1  0
 15 16  1  0
 15 46  1  0
 16 17  2  0
 16 18  1  0
 18 19  1  0
 19 20  2  0
 19 27  1  0
 20 21  1  0
 20 47  1  0
 21 22  2  0
 21 48  1  0
 22 23  1  0
 22 26  1  0
 23 24  1  0
 23 25  1  0
 24 49  1  0
 24 50  1  0
 24 51  1  0
 25 52  1  0
 25 53  1  0
 25 54  1  0
 26 27  2  0
 26 55  1  0
 27 56  1  0
 28 29  1  0
 28 30  1  0
 29 57  1  0
 29 58  1  0
 29 59  1  0
 30 31  1  0
 31 32  1  0
 31 60  1  0
 31 61  1  0
 32 33  2  0
 32 37  1  0
 33 34  1  0
 33 62  1  0
 34 35  2  0
 34 63  1  0
 35 36  1  0
 35 64  1  0
 36 37  2  0
 36 65  1  0
 37 66  1  0
M  END

