
     RDKit          3D

 22 22  0  0  0  0  0  0  0  0999 V2000
    2.1919    0.9243    2.4588 C   0  0  0  0  0  0  0  0  0  0  0  0
    3.1326   -0.1635    2.2859 N   0  0  0  0  0  0  0  0  0  0  0  0
    3.4259   -0.6872    1.0697 C   0  0  0  0  0  0  0  0  0  0  0  0
    2.9249   -0.3277    0.0201 O   0  0  0  0  0  0  0  0  0  0  0  0
    4.4472   -1.8374    1.0193 C   0  0  0  0  0  0  0  0  0  0  0  0
    5.3164   -2.3157    2.5525 S   0  0  0  0  0  0  0  0  0  0  0  0
    6.5902   -1.1100    2.6224 C   0  0  0  0  0  0  0  0  0  0  0  0
    6.7822   -0.2593    1.6731 N   0  0  0  0  0  0  0  0  0  0  0  0
    7.8555    0.6199    1.8156 C   0  0  0  0  0  0  0  0  0  0  0  0
    8.8437    0.5317    2.6370 N   0  0  0  0  0  0  0  0  0  0  0  0
    8.8401   -0.5408    3.5377 C   0  0  0  0  0  0  0  0  0  0  0  0
    9.8425   -0.9780    4.0457 O   0  0  0  0  0  0  0  0  0  0  0  0
    7.4671   -1.1476    3.8415 C   0  0  1  0  0  0  0  0  0  0  0  0
    6.5046    0.0461    5.4514 I   0  0  0  0  0  0  0  0  0  0  0  0
    2.6772    1.8058    2.9099 H   0  0  0  0  0  0  0  0  0  0  0  0
    1.3443    0.6257    3.0983 H   0  0  0  0  0  0  0  0  0  0  0  0
    1.8081    1.1978    1.4673 H   0  0  0  0  0  0  0  0  0  0  0  0
    3.6081   -0.5375    3.1002 H   0  0  0  0  0  0  0  0  0  0  0  0
    5.1989   -1.5727    0.2644 H   0  0  0  0  0  0  0  0  0  0  0  0
    3.9236   -2.7451    0.6840 H   0  0  0  0  0  0  0  0  0  0  0  0
    7.8382    1.4618    1.1105 H   0  0  0  0  0  0  0  0  0  0  0  0
    7.5757   -2.1404    4.2914 H   0  0  0  0  0  0  0  0  0  0  0  0
  1  2  1  0
  1 15  1  0
  1 16  1  0
  1 17  1  0
  2  3  1  0
  2 18  1  0
  3  4  2  0
  3  5  1  0
  5  6  1  0
  5 19  1  0
  5 20  1  0
  6  7  2  0
  7  8  1  0
  7 13  1  0
  8  9  2  0
  9 10  1  0
  9 21  1  0
 10 11  2  0
 11 12  1  0
 11 13  1  0
 13 14  1  0
 13 22  1  1
M  CHG  2   6   1  12  -1
M  END

