
     RDKit          3D

 24 24  0  0  0  0  0  0  0  0999 V2000
    0.9566    0.0764   -0.3024 C   0  0  0  0  0  0  0  0  0  0  0  0
    2.4605   -0.0065   -0.1535 C   0  0  0  0  0  0  0  0  0  0  0  0
    3.0880    1.1691   -0.0679 N   0  0  0  0  0  0  0  0  0  0  0  0
    4.4178    1.2068    0.0656 C   0  0  0  0  0  0  0  0  0  0  0  0
    5.0388    2.5886    0.1237 C   0  0  0  0  0  0  0  0  0  0  0  0
    6.4082    2.5784    0.6096 N   0  0  0  0  0  0  0  0  0  0  0  0
    5.1983    0.0453    0.1245 C   0  0  0  0  0  0  0  0  0  0  0  0
    4.5719   -1.1942    0.0374 C   0  0  0  0  0  0  0  0  0  0  0  0
    5.4289   -2.4505    0.0422 C   0  0  1  0  0  0  0  0  0  0  0  0
    5.4953   -2.9534   -1.2195 F   0  0  0  0  0  0  0  0  0  0  0  0
    6.7014   -2.1459    0.4237 F   0  0  0  0  0  0  0  0  0  0  0  0
    3.1635   -1.2405   -0.1007 C   0  0  0  0  0  0  0  0  0  0  0  0
    2.4143   -2.5198   -0.1567 C   0  0  0  0  0  0  0  0  0  0  0  0
    2.8998   -3.6252   -0.0384 O   0  0  0  0  0  0  0  0  0  0  0  0
    0.6759    1.1366   -0.3310 H   0  0  0  0  0  0  0  0  0  0  0  0
    0.4289   -0.4017    0.5383 H   0  0  0  0  0  0  0  0  0  0  0  0
    0.6041   -0.4044   -1.2288 H   0  0  0  0  0  0  0  0  0  0  0  0
    4.3316    3.2344    0.6833 H   0  0  0  0  0  0  0  0  0  0  0  0
    5.0374    2.9825   -0.9091 H   0  0  0  0  0  0  0  0  0  0  0  0
    6.4364    2.4553    1.6221 H   0  0  0  0  0  0  0  0  0  0  0  0
    6.8720    3.4618    0.4074 H   0  0  0  0  0  0  0  0  0  0  0  0
    6.2778    0.1312    0.2345 H   0  0  0  0  0  0  0  0  0  0  0  0
    5.0423   -3.2334    0.7075 H   0  0  0  0  0  0  0  0  0  0  0  0
    1.3145   -2.4158   -0.3085 H   0  0  0  0  0  0  0  0  0  0  0  0
  1  2  1  0
  1 15  1  0
  1 16  1  0
  1 17  1  0
  2  3  2  0
  2 12  1  0
  3  4  1  0
  4  5  1  0
  4  7  2  0
  5  6  1  0
  5 18  1  0
  5 19  1  0
  6 20  1  0
  6 21  1  0
  7  8  1  0
  7 22  1  0
  8  9  1  0
  8 12  2  0
  9 10  1  0
  9 11  1  0
  9 23  1  1
 12 13  1  0
 13 14  2  0
 13 24  1  0
M  END

