
     RDKit          3D

101107  0  0  0  0  0  0  0  0999 V2000
    7.7005    3.2663   -2.1293 C   0  0  0  0  0  0  0  0  0  0  0  0
    6.3806    3.5660   -2.8626 C   0  0  2  0  0  0  0  0  0  0  0  0
    6.6482    3.4888   -4.3838 C   0  0  0  0  0  0  0  0  0  0  0  0
    5.9403    5.0012   -2.4913 C   0  0  0  0  0  0  0  0  0  0  0  0
    5.2656    2.5696   -2.4839 C   0  0  0  0  0  0  0  0  0  0  0  0
    3.9819    2.7061   -3.0686 C   0  0  0  0  0  0  0  0  0  0  0  0
    2.9215    1.8497   -2.7780 C   0  0  0  0  0  0  0  0  0  0  0  0
    3.1495    0.8094   -1.8715 C   0  0  0  0  0  0  0  0  0  0  0  0
    4.4164    0.6418   -1.2628 C   0  0  0  0  0  0  0  0  0  0  0  0
    5.4623    1.5239   -1.5743 C   0  0  0  0  0  0  0  0  0  0  0  0
    4.3087   -0.5052   -0.3791 C   0  0  0  0  0  0  0  0  0  0  0  0
    5.2227   -1.1617    0.4596 C   0  0  0  0  0  0  0  0  0  0  0  0
    4.8342   -2.2907    1.1889 C   0  0  0  0  0  0  0  0  0  0  0  0
    5.7939   -3.0464    2.1306 C   0  0  1  0  0  0  0  0  0  0  0  0
    5.2285   -3.0231    3.5698 C   0  0  0  0  0  0  0  0  0  0  0  0
    5.9364   -4.5121    1.6586 C   0  0  0  0  0  0  0  0  0  0  0  0
    7.1973   -2.4146    2.1577 C   0  0  0  0  0  0  0  0  0  0  0  0
    3.4995   -2.7451    1.0443 C   0  0  0  0  0  0  0  0  0  0  0  0
    2.5679   -2.1145    0.2230 C   0  0  0  0  0  0  0  0  0  0  0  0
    2.9801   -0.9809   -0.4833 C   0  0  0  0  0  0  0  0  0  0  0  0
    2.2726   -0.1694   -1.3843 N   0  0  0  0  0  0  0  0  0  0  0  0
    0.9535   -0.3819   -1.8457 C   0  0  0  0  0  0  0  0  0  0  0  0
    0.7338   -0.7285   -3.1844 C   0  0  0  0  0  0  0  0  0  0  0  0
   -0.5608   -0.9583   -3.6511 C   0  0  0  0  0  0  0  0  0  0  0  0
   -1.6534   -0.8411   -2.7912 C   0  0  0  0  0  0  0  0  0  0  0  0
   -1.4648   -0.4862   -1.4501 C   0  0  0  0  0  0  0  0  0  0  0  0
   -2.5835   -0.3560   -0.5957 N   0  0  0  0  0  0  0  0  0  0  0  0
   -3.0701    0.8363   -0.0369 C   0  0  0  0  0  0  0  0  0  0  0  0
   -2.5636    2.1371   -0.1084 C   0  0  0  0  0  0  0  0  0  0  0  0
   -3.2736    3.1490    0.5336 C   0  0  0  0  0  0  0  0  0  0  0  0
   -4.4767    2.9161    1.2458 C   0  0  0  0  0  0  0  0  0  0  0  0
   -5.1887    4.0971    1.9366 C   0  0  2  0  0  0  0  0  0  0  0  0
   -6.4797    3.6587    2.6513 C   0  0  0  0  0  0  0  0  0  0  0  0
   -5.5627    5.1657    0.8832 C   0  0  0  0  0  0  0  0  0  0  0  0
   -4.2448    4.7226    2.9899 C   0  0  0  0  0  0  0  0  0  0  0  0
   -4.9673    1.6066    1.2892 C   0  0  0  0  0  0  0  0  0  0  0  0
   -4.2770    0.5649    0.6502 C   0  0  0  0  0  0  0  0  0  0  0  0
   -4.5404   -0.8545    0.4953 C   0  0  0  0  0  0  0  0  0  0  0  0
   -5.5619   -1.7011    0.9524 C   0  0  0  0  0  0  0  0  0  0  0  0
   -5.5486   -3.0660    0.6419 C   0  0  0  0  0  0  0  0  0  0  0  0
   -6.6461   -4.0401    1.1176 C   0  0  2  0  0  0  0  0  0  0  0  0
   -6.0117   -5.1485    1.9897 C   0  0  0  0  0  0  0  0  0  0  0  0
   -7.3339   -4.6832   -0.1091 C   0  0  0  0  0  0  0  0  0  0  0  0
   -7.7266   -3.3328    1.9554 C   0  0  0  0  0  0  0  0  0  0  0  0
   -4.4731   -3.5571   -0.1395 C   0  0  0  0  0  0  0  0  0  0  0  0
   -3.4417   -2.7441   -0.6057 C   0  0  0  0  0  0  0  0  0  0  0  0
   -3.4851   -1.3833   -0.2860 C   0  0  0  0  0  0  0  0  0  0  0  0
   -0.1518   -0.2554   -0.9661 C   0  0  0  0  0  0  0  0  0  0  0  0
    0.0572    0.1044    0.4068 C   0  0  0  0  0  0  0  0  0  0  0  0
    0.2263    0.3955    1.5173 N   0  0  0  0  0  0  0  0  0  0  0  0
    7.5875    3.3335   -1.0360 H   0  0  0  0  0  0  0  0  0  0  0  0
    8.4676    3.9983   -2.4274 H   0  0  0  0  0  0  0  0  0  0  0  0
    8.0879    2.2647   -2.3729 H   0  0  0  0  0  0  0  0  0  0  0  0
    5.7513    3.7356   -4.9724 H   0  0  0  0  0  0  0  0  0  0  0  0
    6.9722    2.4773   -4.6763 H   0  0  0  0  0  0  0  0  0  0  0  0
    7.4414    4.1979   -4.6735 H   0  0  0  0  0  0  0  0  0  0  0  0
    5.0211    5.2993   -3.0183 H   0  0  0  0  0  0  0  0  0  0  0  0
    5.7481    5.0872   -1.4100 H   0  0  0  0  0  0  0  0  0  0  0  0
    6.7262    5.7276   -2.7570 H   0  0  0  0  0  0  0  0  0  0  0  0
    3.8004    3.5172   -3.7773 H   0  0  0  0  0  0  0  0  0  0  0  0
    1.9459    1.9971   -3.2453 H   0  0  0  0  0  0  0  0  0  0  0  0
    6.4290    1.3792   -1.0918 H   0  0  0  0  0  0  0  0  0  0  0  0
    6.2402   -0.7765    0.5272 H   0  0  0  0  0  0  0  0  0  0  0  0
    4.2391   -3.5013    3.6311 H   0  0  0  0  0  0  0  0  0  0  0  0
    5.9016   -3.5608    4.2582 H   0  0  0  0  0  0  0  0  0  0  0  0
    5.1217   -1.9893    3.9346 H   0  0  0  0  0  0  0  0  0  0  0  0
    4.9704   -5.0398    1.6564 H   0  0  0  0  0  0  0  0  0  0  0  0
    6.6171   -5.0682    2.3246 H   0  0  0  0  0  0  0  0  0  0  0  0
    6.3457   -4.5595    0.6367 H   0  0  0  0  0  0  0  0  0  0  0  0
    7.6723   -2.4249    1.1642 H   0  0  0  0  0  0  0  0  0  0  0  0
    7.8489   -2.9819    2.8409 H   0  0  0  0  0  0  0  0  0  0  0  0
    7.1719   -1.3732    2.5149 H   0  0  0  0  0  0  0  0  0  0  0  0
    3.1714   -3.6263    1.5997 H   0  0  0  0  0  0  0  0  0  0  0  0
    1.5499   -2.5000    0.1460 H   0  0  0  0  0  0  0  0  0  0  0  0
    1.5939   -0.8289   -3.8483 H   0  0  0  0  0  0  0  0  0  0  0  0
   -0.7201   -1.2320   -4.6967 H   0  0  0  0  0  0  0  0  0  0  0  0
   -2.6695   -1.0092   -3.1516 H   0  0  0  0  0  0  0  0  0  0  0  0
   -1.6397    2.3648   -0.6426 H   0  0  0  0  0  0  0  0  0  0  0  0
   -2.8707    4.1627    0.4812 H   0  0  0  0  0  0  0  0  0  0  0  0
   -6.9551    4.5291    3.1303 H   0  0  0  0  0  0  0  0  0  0  0  0
   -6.2808    2.9162    3.4399 H   0  0  0  0  0  0  0  0  0  0  0  0
   -7.2115    3.2270    1.9505 H   0  0  0  0  0  0  0  0  0  0  0  0
   -6.2421    4.7490    0.1225 H   0  0  0  0  0  0  0  0  0  0  0  0
   -6.0700    6.0196    1.3623 H   0  0  0  0  0  0  0  0  0  0  0  0
   -4.6764    5.5572    0.3611 H   0  0  0  0  0  0  0  0  0  0  0  0
   -3.9659    3.9835    3.7575 H   0  0  0  0  0  0  0  0  0  0  0  0
   -3.3149    5.0989    2.5371 H   0  0  0  0  0  0  0  0  0  0  0  0
   -4.7368    5.5708    3.4945 H   0  0  0  0  0  0  0  0  0  0  0  0
   -5.8934    1.3747    1.8151 H   0  0  0  0  0  0  0  0  0  0  0  0
   -6.3632   -1.2746    1.5558 H   0  0  0  0  0  0  0  0  0  0  0  0
   -6.7829   -5.8559    2.3371 H   0  0  0  0  0  0  0  0  0  0  0  0
   -5.5189   -4.7188    2.8763 H   0  0  0  0  0  0  0  0  0  0  0  0
   -5.2565   -5.7268    1.4357 H   0  0  0  0  0  0  0  0  0  0  0  0
   -6.6216   -5.2447   -0.7329 H   0  0  0  0  0  0  0  0  0  0  0  0
   -8.1201   -5.3862    0.2126 H   0  0  0  0  0  0  0  0  0  0  0  0
   -7.8029   -3.9158   -0.7454 H   0  0  0  0  0  0  0  0  0  0  0  0
   -7.3073   -2.8754    2.8651 H   0  0  0  0  0  0  0  0  0  0  0  0
   -8.2417   -2.5461    1.3823 H   0  0  0  0  0  0  0  0  0  0  0  0
   -8.4885   -4.0617    2.2738 H   0  0  0  0  0  0  0  0  0  0  0  0
   -4.4364   -4.6193   -0.3914 H   0  0  0  0  0  0  0  0  0  0  0  0
   -2.6275   -3.1664   -1.1978 H   0  0  0  0  0  0  0  0  0  0  0  0
  2  1  1  1
  1 51  1  0
  1 52  1  0
  1 53  1  0
  2  3  1  0
  2  4  1  0
  2  5  1  0
  3 54  1  0
  3 55  1  0
  3 56  1  0
  4 57  1  0
  4 58  1  0
  4 59  1  0
  5  6  2  0
  5 10  1  0
  6  7  1  0
  6 60  1  0
  7  8  2  0
  7 61  1  0
  8  9  1  0
  8 21  1  0
  9 10  2  0
  9 11  1  0
 10 62  1  0
 11 12  2  0
 11 20  1  0
 12 13  1  0
 12 63  1  0
 13 14  1  0
 13 18  2  0
 14 15  1  1
 14 16  1  0
 14 17  1  0
 15 64  1  0
 15 65  1  0
 15 66  1  0
 16 67  1  0
 16 68  1  0
 16 69  1  0
 17 70  1  0
 17 71  1  0
 17 72  1  0
 18 19  1  0
 18 73  1  0
 19 20  2  0
 19 74  1  0
 20 21  1  0
 21 22  1  0
 22 23  2  0
 22 48  1  0
 23 24  1  0
 23 75  1  0
 24 25  2  0
 24 76  1  0
 25 26  1  0
 25 77  1  0
 26 27  1  0
 26 48  2  0
 27 28  1  0
 27 47  1  0
 28 29  2  0
 28 37  1  0
 29 30  1  0
 29 78  1  0
 30 31  2  0
 30 79  1  0
 31 32  1  0
 31 36  1  0
 32 33  1  1
 32 34  1  0
 32 35  1  0
 33 80  1  0
 33 81  1  0
 33 82  1  0
 34 83  1  0
 34 84  1  0
 34 85  1  0
 35 86  1  0
 35 87  1  0
 35 88  1  0
 36 37  2  0
 36 89  1  0
 37 38  1  0
 38 39  1  0
 38 47  2  0
 39 40  2  0
 39 90  1  0
 40 41  1  0
 40 45  1  0
 41 42  1  1
 41 43  1  0
 41 44  1  0
 42 91  1  0
 42 92  1  0
 42 93  1  0
 43 94  1  0
 43 95  1  0
 43 96  1  0
 44 97  1  0
 44 98  1  0
 44 99  1  0
 45 46  2  0
 45100  1  0
 46 47  1  0
 46101  1  0
 48 49  1  0
 49 50  3  0
M  END

