
     RDKit          3D

 46 47  0  0  0  0  0  0  0  0999 V2000
    1.1236    0.2173   -0.2653 C   0  0  0  0  0  0  0  0  0  0  0  0
    2.6444    0.3234   -0.1823 C   0  0  0  0  0  0  0  0  0  0  0  0
    3.2904    1.1093   -1.3295 C   0  0  1  0  0  0  0  0  0  0  0  0
    2.7744    2.8918   -1.4280 S   0  0  0  0  0  0  0  0  0  0  0  0
    3.0207    3.5268    0.2306 C   0  0  0  0  0  0  0  0  0  0  0  0
    4.2515    3.4616    0.9044 C   0  0  0  0  0  0  0  0  0  0  0  0
    4.3947    4.0199    2.1755 C   0  0  0  0  0  0  0  0  0  0  0  0
    3.3104    4.6734    2.7702 C   0  0  0  0  0  0  0  0  0  0  0  0
    3.4931    5.3846    4.3558 Cl  0  0  0  0  0  0  0  0  0  0  0  0
    2.0837    4.7631    2.1074 C   0  0  0  0  0  0  0  0  0  0  0  0
    1.9415    4.1807    0.8460 C   0  0  0  0  0  0  0  0  0  0  0  0
    4.8126    0.8351   -1.4292 C   0  0  0  0  0  0  0  0  0  0  0  0
    5.2537   -0.2611   -1.1220 O   0  0  0  0  0  0  0  0  0  0  0  0
    5.5848    1.8433   -1.9168 N   0  0  0  0  0  0  0  0  0  0  0  0
    6.9943    1.6737   -2.2219 C   0  0  0  0  0  0  0  0  0  0  0  0
    7.2684    1.4765   -3.7261 C   0  0  0  0  0  0  0  0  0  0  0  0
    8.7338    1.3027   -4.0525 C   0  0  0  0  0  0  0  0  0  0  0  0
    9.4070    2.2119   -4.7799 C   0  0  0  0  0  0  0  0  0  0  0  0
   10.8708    2.1160   -5.1279 C   0  0  0  0  0  0  0  0  0  0  0  0
   11.6019    1.0464   -4.3068 C   0  0  0  0  0  0  0  0  0  0  0  0
   10.7594   -0.2281   -4.2034 C   0  0  0  0  0  0  0  0  0  0  0  0
    9.4168    0.0568   -3.5193 C   0  0  0  0  0  0  0  0  0  0  0  0
    0.7306   -0.3805    0.5720 H   0  0  0  0  0  0  0  0  0  0  0  0
    0.8068   -0.2730   -1.2014 H   0  0  0  0  0  0  0  0  0  0  0  0
    0.6407    1.2060   -0.2303 H   0  0  0  0  0  0  0  0  0  0  0  0
    3.1022   -0.6772   -0.2032 H   0  0  0  0  0  0  0  0  0  0  0  0
    2.9458    0.7733    0.7787 H   0  0  0  0  0  0  0  0  0  0  0  0
    2.8789    0.7309   -2.2839 H   0  0  0  0  0  0  0  0  0  0  0  0
    5.1082    2.9773    0.4335 H   0  0  0  0  0  0  0  0  0  0  0  0
    5.3488    3.9615    2.7021 H   0  0  0  0  0  0  0  0  0  0  0  0
    1.2443    5.2738    2.5823 H   0  0  0  0  0  0  0  0  0  0  0  0
    0.9789    4.2317    0.3322 H   0  0  0  0  0  0  0  0  0  0  0  0
    5.1090    2.7020   -2.1816 H   0  0  0  0  0  0  0  0  0  0  0  0
    7.3339    0.7979   -1.6517 H   0  0  0  0  0  0  0  0  0  0  0  0
    7.5532    2.5528   -1.8588 H   0  0  0  0  0  0  0  0  0  0  0  0
    6.8639    2.3397   -4.2813 H   0  0  0  0  0  0  0  0  0  0  0  0
    6.7028    0.5862   -4.0570 H   0  0  0  0  0  0  0  0  0  0  0  0
    8.8656    3.0842   -5.1664 H   0  0  0  0  0  0  0  0  0  0  0  0
   11.3501    3.1017   -4.9901 H   0  0  0  0  0  0  0  0  0  0  0  0
   10.9712    1.8975   -6.2096 H   0  0  0  0  0  0  0  0  0  0  0  0
   11.7948    1.4342   -3.2900 H   0  0  0  0  0  0  0  0  0  0  0  0
   12.5873    0.8306   -4.7512 H   0  0  0  0  0  0  0  0  0  0  0  0
   11.3042   -1.0142   -3.6554 H   0  0  0  0  0  0  0  0  0  0  0  0
   10.5751   -0.6238   -5.2186 H   0  0  0  0  0  0  0  0  0  0  0  0
    9.5704    0.1602   -2.4277 H   0  0  0  0  0  0  0  0  0  0  0  0
    8.7375   -0.8072   -3.6316 H   0  0  0  0  0  0  0  0  0  0  0  0
  1  2  1  0
  1 23  1  0
  1 24  1  0
  1 25  1  0
  2  3  1  0
  2 26  1  0
  2 27  1  0
  3  4  1  0
  3 12  1  0
  3 28  1  6
  4  5  1  0
  5  6  2  0
  5 11  1  0
  6  7  1  0
  6 29  1  0
  7  8  2  0
  7 30  1  0
  8  9  1  0
  8 10  1  0
 10 11  2  0
 10 31  1  0
 11 32  1  0
 12 13  2  0
 12 14  1  0
 14 15  1  0
 14 33  1  0
 15 16  1  0
 15 34  1  0
 15 35  1  0
 16 17  1  0
 16 36  1  0
 16 37  1  0
 17 18  2  0
 17 22  1  0
 18 19  1  0
 18 38  1  0
 19 20  1  0
 19 39  1  0
 19 40  1  0
 20 21  1  0
 20 41  1  0
 20 42  1  0
 21 22  1  0
 21 43  1  0
 21 44  1  0
 22 45  1  0
 22 46  1  0
M  END

