
     RDKit          3D

 46 48  0  0  0  0  0  0  0  0999 V2000
    3.6609    3.4956    2.0140 C   0  0  0  0  0  0  0  0  0  0  0  0
    4.2975    2.3127    1.3468 C   0  0  0  0  0  0  0  0  0  0  0  0
    3.3279    1.0565    0.6337 S   0  0  0  0  0  0  0  0  0  0  0  0
    4.7209    0.1640    0.1633 C   0  0  0  0  0  0  0  0  0  0  0  0
    5.8885    0.8029    0.5304 C   0  0  0  0  0  0  0  0  0  0  0  0
    7.2528    0.2742    0.2008 C   0  0  0  0  0  0  0  0  0  0  0  0
    8.1965    1.0067   -0.0636 O   0  0  0  0  0  0  0  0  0  0  0  0
    7.3423   -1.0993    0.2175 N   0  0  0  0  0  0  0  0  0  0  0  0
    8.4453   -1.9101   -0.1092 C   0  0  0  0  0  0  0  0  0  0  0  0
    9.6892   -1.4345   -0.5619 C   0  0  0  0  0  0  0  0  0  0  0  0
   10.6989   -2.3415   -0.8583 C   0  0  0  0  0  0  0  0  0  0  0  0
   10.4664   -3.7340   -0.7175 C   0  0  0  0  0  0  0  0  0  0  0  0
   11.4082   -4.7006   -1.0451 N   0  0  0  0  0  0  0  0  0  0  0  0
   11.2705   -6.0490   -0.4935 C   0  0  0  0  0  0  0  0  0  0  0  0
   11.8310   -7.1092   -1.4426 C   0  0  0  0  0  0  0  0  0  0  0  0
   13.2842   -6.8228   -1.8650 C   0  0  2  0  0  0  0  0  0  0  0  0
   14.2988   -7.0788   -0.7415 C   0  0  0  0  0  0  0  0  0  0  0  0
   13.3482   -5.3874   -2.4170 C   0  0  0  0  0  0  0  0  0  0  0  0
   12.7531   -4.3386   -1.4677 C   0  0  0  0  0  0  0  0  0  0  0  0
    9.2806   -4.1689   -0.2590 N   0  0  0  0  0  0  0  0  0  0  0  0
    8.3211   -3.3009    0.0275 C   0  0  0  0  0  0  0  0  0  0  0  0
    5.6464    2.0541    1.2099 C   0  0  0  0  0  0  0  0  0  0  0  0
    6.7021    2.9872    1.7442 C   0  0  0  0  0  0  0  0  0  0  0  0
    2.5639    3.4655    1.9438 H   0  0  0  0  0  0  0  0  0  0  0  0
    4.0001    4.4398    1.5552 H   0  0  0  0  0  0  0  0  0  0  0  0
    3.9260    3.5427    3.0844 H   0  0  0  0  0  0  0  0  0  0  0  0
    4.6120   -0.7550   -0.4109 H   0  0  0  0  0  0  0  0  0  0  0  0
    6.5281   -1.5939    0.5628 H   0  0  0  0  0  0  0  0  0  0  0  0
    9.8512   -0.3631   -0.6593 H   0  0  0  0  0  0  0  0  0  0  0  0
   11.6630   -1.9541   -1.1832 H   0  0  0  0  0  0  0  0  0  0  0  0
   10.2061   -6.2223   -0.3021 H   0  0  0  0  0  0  0  0  0  0  0  0
   11.7851   -6.1055    0.4894 H   0  0  0  0  0  0  0  0  0  0  0  0
   11.1951   -7.1427   -2.3441 H   0  0  0  0  0  0  0  0  0  0  0  0
   11.7556   -8.0984   -0.9599 H   0  0  0  0  0  0  0  0  0  0  0  0
   13.5379   -7.5090   -2.6923 H   0  0  0  0  0  0  0  0  0  0  0  0
   14.1322   -6.4351    0.1368 H   0  0  0  0  0  0  0  0  0  0  0  0
   15.3279   -6.8954   -1.0913 H   0  0  0  0  0  0  0  0  0  0  0  0
   14.2458   -8.1239   -0.3951 H   0  0  0  0  0  0  0  0  0  0  0  0
   12.7855   -5.3469   -3.3655 H   0  0  0  0  0  0  0  0  0  0  0  0
   14.3893   -5.1057   -2.6497 H   0  0  0  0  0  0  0  0  0  0  0  0
   12.7229   -3.3796   -2.0000 H   0  0  0  0  0  0  0  0  0  0  0  0
   13.4167   -4.1904   -0.5883 H   0  0  0  0  0  0  0  0  0  0  0  0
    7.3754   -3.7255    0.3960 H   0  0  0  0  0  0  0  0  0  0  0  0
    7.7093    2.6192    1.5199 H   0  0  0  0  0  0  0  0  0  0  0  0
    6.6013    3.1215    2.8348 H   0  0  0  0  0  0  0  0  0  0  0  0
    6.6081    3.9877    1.2888 H   0  0  0  0  0  0  0  0  0  0  0  0
  1  2  1  0
  1 24  1  0
  1 25  1  0
  1 26  1  0
  2  3  1  0
  2 22  2  0
  3  4  2  0
  4  5  1  0
  4 27  1  0
  5  6  2  0
  5 22  1  0
  6  7  1  0
  6  8  1  0
  8  9  1  0
  8 28  1  0
  9 10  2  0
  9 21  1  0
 10 11  1  0
 10 29  1  0
 11 12  2  0
 11 30  1  0
 12 13  1  0
 12 20  1  0
 13 14  1  0
 13 19  1  0
 14 15  1  0
 14 31  1  0
 14 32  1  0
 15 16  1  0
 15 33  1  0
 15 34  1  0
 16 17  1  0
 16 18  1  0
 16 35  1  6
 17 36  1  0
 17 37  1  0
 17 38  1  0
 18 19  1  0
 18 39  1  0
 18 40  1  0
 19 41  1  0
 19 42  1  0
 20 21  2  0
 21 43  1  0
 22 23  1  0
 23 44  1  0
 23 45  1  0
 23 46  1  0
M  CHG  2   3   1   7  -1
M  END

