
     RDKit          3D

 57 61  0  0  0  0  0  0  0  0999 V2000
    5.5903    2.4684    6.4088 C   0  0  0  0  0  0  0  0  0  0  0  0
    7.0640    2.2332    5.3917 S   0  0  1  0  0  0  0  0  0  0  0  0
    6.7192    2.6095    4.0131 O   0  0  0  0  0  0  0  0  0  0  0  0
    8.1901    2.8823    6.0821 O   0  0  0  0  0  0  0  0  0  0  0  0
    7.3601    0.4414    5.4304 C   0  0  0  0  0  0  0  0  0  0  0  0
    8.5555    0.1058    4.5235 C   0  0  0  0  0  0  0  0  0  0  0  0
    8.9666   -1.2753    4.6213 N   0  0  0  0  0  0  0  0  0  0  0  0
    8.3032   -2.3181    4.0410 C   0  0  0  0  0  0  0  0  0  0  0  0
    7.1619   -2.0434    3.3848 N   0  0  0  0  0  0  0  0  0  0  0  0
    6.5538   -3.0835    2.8128 C   0  0  0  0  0  0  0  0  0  0  0  0
    7.0403   -4.3861    2.8861 C   0  0  0  0  0  0  0  0  0  0  0  0
    8.2313   -4.5653    3.6106 C   0  0  0  0  0  0  0  0  0  0  0  0
    8.8447   -5.9194    3.7680 C   0  0  0  0  0  0  0  0  0  0  0  0
   10.0458   -6.0750    4.4807 C   0  0  0  0  0  0  0  0  0  0  0  0
   10.5743   -7.3587    4.5973 C   0  0  0  0  0  0  0  0  0  0  0  0
    9.9101   -8.4361    4.0130 C   0  0  0  0  0  0  0  0  0  0  0  0
    8.7091   -8.1893    3.3137 C   0  0  0  0  0  0  0  0  0  0  0  0
    7.9168   -9.2333    2.6621 C   0  0  0  0  0  0  0  0  0  0  0  0
    6.6899   -9.0969    1.9903 C   0  0  0  0  0  0  0  0  0  0  0  0
    6.2318  -10.2667    1.5112 N   0  0  0  0  0  0  0  0  0  0  0  0
    7.1487  -11.1703    1.8615 C   0  0  0  0  0  0  0  0  0  0  0  0
    7.2252  -12.5606    1.6363 C   0  0  0  0  0  0  0  0  0  0  0  0
    8.3073  -13.2527    2.1137 C   0  0  0  0  0  0  0  0  0  0  0  0
    9.3335  -12.5373    2.8340 C   0  0  0  0  0  0  0  0  0  0  0  0
   10.4311  -13.1919    3.3180 N   0  0  0  0  0  0  0  0  0  0  0  0
   11.5332  -12.4888    3.9735 C   0  0  0  0  0  0  0  0  0  0  0  0
   12.6275  -13.5589    4.0737 C   0  0  0  0  0  0  0  0  0  0  0  0
   11.8323  -14.8666    4.1911 C   0  0  0  0  0  0  0  0  0  0  0  0
   10.6342  -14.6375    3.2584 C   0  0  0  0  0  0  0  0  0  0  0  0
    9.2766  -11.2295    3.0582 N   0  0  0  0  0  0  0  0  0  0  0  0
    8.2013  -10.5818    2.5700 N   0  0  0  0  0  0  0  0  0  0  0  0
    8.2044   -6.9470    3.2065 N   0  0  0  0  0  0  0  0  0  0  0  0
    8.8580   -3.5341    4.1823 N   0  0  0  0  0  0  0  0  0  0  0  0
    5.4103    3.5523    6.3922 H   0  0  0  0  0  0  0  0  0  0  0  0
    5.7925    2.1301    7.4335 H   0  0  0  0  0  0  0  0  0  0  0  0
    4.7453    1.9329    5.9566 H   0  0  0  0  0  0  0  0  0  0  0  0
    6.4524   -0.0636    5.0704 H   0  0  0  0  0  0  0  0  0  0  0  0
    7.5612    0.1761    6.4792 H   0  0  0  0  0  0  0  0  0  0  0  0
    9.4082    0.7412    4.8045 H   0  0  0  0  0  0  0  0  0  0  0  0
    8.2799    0.3473    3.4863 H   0  0  0  0  0  0  0  0  0  0  0  0
    9.8118   -1.5182    5.1215 H   0  0  0  0  0  0  0  0  0  0  0  0
    5.6257   -2.8652    2.2708 H   0  0  0  0  0  0  0  0  0  0  0  0
    6.5395   -5.2319    2.4204 H   0  0  0  0  0  0  0  0  0  0  0  0
   10.5247   -5.1990    4.9164 H   0  0  0  0  0  0  0  0  0  0  0  0
   11.5063   -7.5240    5.1447 H   0  0  0  0  0  0  0  0  0  0  0  0
   10.2890   -9.4532    4.0829 H   0  0  0  0  0  0  0  0  0  0  0  0
    6.1512   -8.1603    1.8616 H   0  0  0  0  0  0  0  0  0  0  0  0
    6.4199  -13.0438    1.0811 H   0  0  0  0  0  0  0  0  0  0  0  0
    8.4015  -14.3238    1.9441 H   0  0  0  0  0  0  0  0  0  0  0  0
   11.2242  -12.1157    4.9687 H   0  0  0  0  0  0  0  0  0  0  0  0
   11.8369  -11.6087    3.3850 H   0  0  0  0  0  0  0  0  0  0  0  0
   13.3098  -13.3874    4.9191 H   0  0  0  0  0  0  0  0  0  0  0  0
   13.2339  -13.5649    3.1526 H   0  0  0  0  0  0  0  0  0  0  0  0
   11.4781  -15.0030    5.2264 H   0  0  0  0  0  0  0  0  0  0  0  0
   12.4119  -15.7604    3.9174 H   0  0  0  0  0  0  0  0  0  0  0  0
    9.7391  -15.1878    3.5937 H   0  0  0  0  0  0  0  0  0  0  0  0
   10.8582  -14.9721    2.2261 H   0  0  0  0  0  0  0  0  0  0  0  0
  2  1  1  1
  1 34  1  0
  1 35  1  0
  1 36  1  0
  2  3  2  0
  2  4  2  0
  2  5  1  0
  5  6  1  0
  5 37  1  0
  5 38  1  0
  6  7  1  0
  6 39  1  0
  6 40  1  0
  7  8  1  0
  7 41  1  0
  8  9  2  0
  8 33  1  0
  9 10  1  0
 10 11  2  0
 10 42  1  0
 11 12  1  0
 11 43  1  0
 12 13  1  0
 12 33  2  0
 13 14  2  0
 13 32  1  0
 14 15  1  0
 14 44  1  0
 15 16  2  0
 15 45  1  0
 16 17  1  0
 16 46  1  0
 17 18  1  0
 17 32  2  0
 18 19  2  0
 18 31  1  0
 19 20  1  0
 19 47  1  0
 20 21  2  0
 21 22  1  0
 21 31  1  0
 22 23  2  0
 22 48  1  0
 23 24  1  0
 23 49  1  0
 24 25  1  0
 24 30  2  0
 25 26  1  0
 25 29  1  0
 26 27  1  0
 26 50  1  0
 26 51  1  0
 27 28  1  0
 27 52  1  0
 27 53  1  0
 28 29  1  0
 28 54  1  0
 28 55  1  0
 29 56  1  0
 29 57  1  0
 30 31  1  0
M  END

