
     RDKit          3D

 25 26  0  0  0  0  0  0  0  0999 V2000
    1.7275   -4.9308   -0.1359 C   0  0  0  0  0  0  0  0  0  0  0  0
    3.1177   -4.6249    0.0075 O   0  0  0  0  0  0  0  0  0  0  0  0
    3.4275   -3.6794    0.9079 C   0  0  0  0  0  0  0  0  0  0  0  0
    2.6181   -3.0934    1.5809 O   0  0  0  0  0  0  0  0  0  0  0  0
    4.9272   -3.4674    0.9469 C   0  0  0  0  0  0  0  0  0  0  0  0
    5.3186   -2.1694    2.1693 S   0  0  0  0  0  0  0  0  0  0  0  0
    7.0683   -2.1604    1.9602 C   0  0  0  0  0  0  0  0  0  0  0  0
    7.7109   -2.9353    1.1307 N   0  0  0  0  0  0  0  0  0  0  0  0
    9.0753   -2.8567    1.0330 C   0  0  0  0  0  0  0  0  0  0  0  0
    9.6306   -3.6915    0.1022 N   0  0  0  0  0  0  0  0  0  0  0  0
    9.8321   -1.9739    1.8019 C   0  0  0  0  0  0  0  0  0  0  0  0
    9.1346   -1.1392    2.6961 C   0  0  0  0  0  0  0  0  0  0  0  0
    9.4953   -0.1999    3.5663 N   0  0  0  0  0  0  0  0  0  0  0  0
    8.3133    0.2004    4.0970 C   0  0  0  0  0  0  0  0  0  0  0  0
    7.2200   -0.3998    3.6456 N   0  0  0  0  0  0  0  0  0  0  0  0
    7.7432   -1.2666    2.7406 N   0  0  0  0  0  0  0  0  0  0  0  0
    1.6657   -5.7142   -0.9010 H   0  0  0  0  0  0  0  0  0  0  0  0
    1.1636   -4.0408   -0.4530 H   0  0  0  0  0  0  0  0  0  0  0  0
    1.3076   -5.2905    0.8153 H   0  0  0  0  0  0  0  0  0  0  0  0
    5.2940   -3.1831   -0.0500 H   0  0  0  0  0  0  0  0  0  0  0  0
    5.4315   -4.4096    1.2070 H   0  0  0  0  0  0  0  0  0  0  0  0
    9.0412   -4.4275   -0.2647 H   0  0  0  0  0  0  0  0  0  0  0  0
   10.6277   -3.8554    0.1145 H   0  0  0  0  0  0  0  0  0  0  0  0
   10.9171   -1.9087    1.7287 H   0  0  0  0  0  0  0  0  0  0  0  0
    8.2434    0.9769    4.8600 H   0  0  0  0  0  0  0  0  0  0  0  0
  1  2  1  0
  1 17  1  0
  1 18  1  0
  1 19  1  0
  2  3  1  0
  3  4  2  0
  3  5  1  0
  5  6  1  0
  5 20  1  0
  5 21  1  0
  6  7  1  0
  7  8  2  0
  7 16  1  0
  8  9  1  0
  9 10  1  0
  9 11  2  0
 10 22  1  0
 10 23  1  0
 11 12  1  0
 11 24  1  0
 12 13  2  0
 12 16  1  0
 13 14  1  0
 14 15  2  0
 14 25  1  0
 15 16  1  0
M  END

