
     RDKit          3D

 53 55  0  0  0  0  0  0  0  0999 V2000
    4.8339   -0.3804   -1.1091 C   0  0  0  0  0  0  0  0  0  0  0  0
    4.3255    0.9547   -0.5674 C   0  0  0  0  0  0  0  0  0  0  0  0
    4.8147    1.2803    0.7831 N   0  0  0  0  0  0  0  0  0  0  0  0
    5.7934    2.3643    0.9033 C   0  0  0  0  0  0  0  0  0  0  0  0
    7.0904    2.1275    0.1476 C   0  0  0  0  0  0  0  0  0  0  0  0
    7.9376    1.0613    0.4907 C   0  0  0  0  0  0  0  0  0  0  0  0
    9.1416    0.8636   -0.1875 C   0  0  0  0  0  0  0  0  0  0  0  0
    9.5175    1.7289   -1.2215 C   0  0  0  0  0  0  0  0  0  0  0  0
    8.6828    2.7924   -1.5707 C   0  0  0  0  0  0  0  0  0  0  0  0
    7.4766    2.9878   -0.8888 C   0  0  0  0  0  0  0  0  0  0  0  0
    4.1782    0.6764    1.8284 C   0  0  0  0  0  0  0  0  0  0  0  0
    3.2641   -0.1225    1.6640 O   0  0  0  0  0  0  0  0  0  0  0  0
    4.5912    1.0279    3.2738 C   0  0  0  0  0  0  0  0  0  0  0  0
    5.9575    0.8122    3.6023 O   0  0  0  0  0  0  0  0  0  0  0  0
    6.4433   -0.4626    3.7872 C   0  0  0  0  0  0  0  0  0  0  0  0
    5.6567   -1.5960    3.5354 C   0  0  0  0  0  0  0  0  0  0  0  0
    6.1886   -2.8730    3.7291 C   0  0  0  0  0  0  0  0  0  0  0  0
    7.5051   -3.0324    4.1641 C   0  0  0  0  0  0  0  0  0  0  0  0
    8.2827   -1.9020    4.4040 C   0  0  0  0  0  0  0  0  0  0  0  0
    7.7828   -0.6002    4.2332 C   0  0  0  0  0  0  0  0  0  0  0  0
    8.7729    0.5056    4.5546 C   0  0  0  0  0  0  0  0  0  0  0  0
    9.9443    0.2315    4.7722 O   0  0  0  0  0  0  0  0  0  0  0  0
    8.2715    1.7813    4.6108 N   0  0  0  0  0  0  0  0  0  0  0  0
    8.9420    2.9789    4.9135 C   0  0  0  0  0  0  0  0  0  0  0  0
   10.3189    3.0594    5.1951 C   0  0  0  0  0  0  0  0  0  0  0  0
   10.8922    4.3007    5.4828 C   0  0  0  0  0  0  0  0  0  0  0  0
   10.1272    5.4700    5.4981 C   0  0  0  0  0  0  0  0  0  0  0  0
    8.7590    5.3897    5.2197 C   0  0  0  0  0  0  0  0  0  0  0  0
    8.1720    4.1591    4.9309 C   0  0  0  0  0  0  0  0  0  0  0  0
    4.4228   -0.5554   -2.1163 H   0  0  0  0  0  0  0  0  0  0  0  0
    4.5058   -1.2055   -0.4609 H   0  0  0  0  0  0  0  0  0  0  0  0
    5.9317   -0.3956   -1.1781 H   0  0  0  0  0  0  0  0  0  0  0  0
    3.2254    0.9423   -0.5324 H   0  0  0  0  0  0  0  0  0  0  0  0
    4.6334    1.7774   -1.2300 H   0  0  0  0  0  0  0  0  0  0  0  0
    6.0292    2.5100    1.9634 H   0  0  0  0  0  0  0  0  0  0  0  0
    5.3363    3.3025    0.5395 H   0  0  0  0  0  0  0  0  0  0  0  0
    7.6545    0.3813    1.2972 H   0  0  0  0  0  0  0  0  0  0  0  0
    9.7928    0.0335    0.0972 H   0  0  0  0  0  0  0  0  0  0  0  0
   10.4614    1.5744   -1.7504 H   0  0  0  0  0  0  0  0  0  0  0  0
    8.9686    3.4741   -2.3758 H   0  0  0  0  0  0  0  0  0  0  0  0
    6.8285    3.8252   -1.1647 H   0  0  0  0  0  0  0  0  0  0  0  0
    3.9296    0.4414    3.9272 H   0  0  0  0  0  0  0  0  0  0  0  0
    4.4107    2.0955    3.4719 H   0  0  0  0  0  0  0  0  0  0  0  0
    4.6366   -1.4932    3.1655 H   0  0  0  0  0  0  0  0  0  0  0  0
    5.5609   -3.7447    3.5277 H   0  0  0  0  0  0  0  0  0  0  0  0
    7.9248   -4.0297    4.3124 H   0  0  0  0  0  0  0  0  0  0  0  0
    9.3180   -1.9863    4.7379 H   0  0  0  0  0  0  0  0  0  0  0  0
    7.2824    1.8648    4.3982 H   0  0  0  0  0  0  0  0  0  0  0  0
   10.9155    2.1509    5.1846 H   0  0  0  0  0  0  0  0  0  0  0  0
   11.9628    4.3482    5.6994 H   0  0  0  0  0  0  0  0  0  0  0  0
   10.5901    6.4332    5.7252 H   0  0  0  0  0  0  0  0  0  0  0  0
    8.1410    6.2914    5.2282 H   0  0  0  0  0  0  0  0  0  0  0  0
    7.0996    4.1047    4.7195 H   0  0  0  0  0  0  0  0  0  0  0  0
  1  2  1  0
  1 30  1  0
  1 31  1  0
  1 32  1  0
  2  3  1  0
  2 33  1  0
  2 34  1  0
  3  4  1  0
  3 11  1  0
  4  5  1  0
  4 35  1  0
  4 36  1  0
  5  6  2  0
  5 10  1  0
  6  7  1  0
  6 37  1  0
  7  8  2  0
  7 38  1  0
  8  9  1  0
  8 39  1  0
  9 10  2  0
  9 40  1  0
 10 41  1  0
 11 12  2  0
 11 13  1  0
 13 14  1  0
 13 42  1  0
 13 43  1  0
 14 15  1  0
 15 16  2  0
 15 20  1  0
 16 17  1  0
 16 44  1  0
 17 18  2  0
 17 45  1  0
 18 19  1  0
 18 46  1  0
 19 20  2  0
 19 47  1  0
 20 21  1  0
 21 22  2  0
 21 23  1  0
 23 24  1  0
 23 48  1  0
 24 25  2  0
 24 29  1  0
 25 26  1  0
 25 49  1  0
 26 27  2  0
 26 50  1  0
 27 28  1  0
 27 51  1  0
 28 29  2  0
 28 52  1  0
 29 53  1  0
M  END

