
     RDKit          3D

 39 40  0  0  0  0  0  0  0  0999 V2000
    2.6479    1.4523   -0.0827 C   0  0  0  0  0  0  0  0  0  0  0  0
    2.4375    0.0730    0.1001 O   0  0  0  0  0  0  0  0  0  0  0  0
    2.8655   -0.7922   -0.8659 C   0  0  0  0  0  0  0  0  0  0  0  0
    3.4852   -0.4040   -2.0580 C   0  0  0  0  0  0  0  0  0  0  0  0
    3.9202   -1.3586   -2.9798 C   0  0  0  0  0  0  0  0  0  0  0  0
    4.7151   -0.8047   -4.4511 Cl  0  0  0  0  0  0  0  0  0  0  0  0
    3.7619   -2.7454   -2.7651 C   0  0  0  0  0  0  0  0  0  0  0  0
    4.2002   -3.6630   -3.6981 N   0  0  0  0  0  0  0  0  0  0  0  0
    4.2851   -5.1035   -3.4658 C   0  0  1  0  0  0  0  0  0  0  0  0
    2.9325   -5.8032   -3.7002 C   0  0  0  0  0  0  0  0  0  0  0  0
    5.3816   -5.6943   -4.3397 C   0  0  0  0  0  0  0  0  0  0  0  0
    6.4600   -6.3885   -3.7778 C   0  0  0  0  0  0  0  0  0  0  0  0
    7.4640   -6.9436   -4.5762 C   0  0  0  0  0  0  0  0  0  0  0  0
    7.4100   -6.8063   -5.9693 C   0  0  0  0  0  0  0  0  0  0  0  0
    8.3554   -7.3195   -6.7979 O   0  0  0  0  0  0  0  0  0  0  0  0
    6.3382   -6.1103   -6.5489 C   0  0  0  0  0  0  0  0  0  0  0  0
    5.3411   -5.5692   -5.7407 C   0  0  0  0  0  0  0  0  0  0  0  0
    3.1249   -3.1110   -1.5588 C   0  0  0  0  0  0  0  0  0  0  0  0
    2.6831   -2.1736   -0.6249 C   0  0  0  0  0  0  0  0  0  0  0  0
    2.1367   -2.6417    0.5359 O   0  0  0  0  0  0  0  0  0  0  0  0
    0.7857   -2.3023    0.8112 C   0  0  0  0  0  0  0  0  0  0  0  0
    2.2471    1.9532    0.8090 H   0  0  0  0  0  0  0  0  0  0  0  0
    2.1210    1.8382   -0.9753 H   0  0  0  0  0  0  0  0  0  0  0  0
    3.7224    1.6958   -0.1757 H   0  0  0  0  0  0  0  0  0  0  0  0
    3.6554    0.6463   -2.2884 H   0  0  0  0  0  0  0  0  0  0  0  0
    4.8316   -3.2858   -4.3948 H   0  0  0  0  0  0  0  0  0  0  0  0
    4.5790   -5.2789   -2.4135 H   0  0  0  0  0  0  0  0  0  0  0  0
    2.6190   -5.7014   -4.7504 H   0  0  0  0  0  0  0  0  0  0  0  0
    2.1430   -5.3645   -3.0717 H   0  0  0  0  0  0  0  0  0  0  0  0
    3.0072   -6.8763   -3.4636 H   0  0  0  0  0  0  0  0  0  0  0  0
    6.5235   -6.5002   -2.6917 H   0  0  0  0  0  0  0  0  0  0  0  0
    8.2970   -7.4822   -4.1129 H   0  0  0  0  0  0  0  0  0  0  0  0
    9.0332   -7.7687   -6.2761 H   0  0  0  0  0  0  0  0  0  0  0  0
    6.3049   -6.0088   -7.6356 H   0  0  0  0  0  0  0  0  0  0  0  0
    4.5122   -5.0356   -6.2144 H   0  0  0  0  0  0  0  0  0  0  0  0
    2.9592   -4.1576   -1.3074 H   0  0  0  0  0  0  0  0  0  0  0  0
    0.5134   -2.8277    1.7376 H   0  0  0  0  0  0  0  0  0  0  0  0
    0.1166   -2.6431   -0.0005 H   0  0  0  0  0  0  0  0  0  0  0  0
    0.6549   -1.2189    0.9558 H   0  0  0  0  0  0  0  0  0  0  0  0
  1  2  1  0
  1 22  1  0
  1 23  1  0
  1 24  1  0
  2  3  1  0
  3  4  2  0
  3 19  1  0
  4  5  1  0
  4 25  1  0
  5  6  1  0
  5  7  2  0
  7  8  1  0
  7 18  1  0
  8  9  1  0
  8 26  1  0
  9 10  1  0
  9 11  1  0
  9 27  1  1
 10 28  1  0
 10 29  1  0
 10 30  1  0
 11 12  2  0
 11 17  1  0
 12 13  1  0
 12 31  1  0
 13 14  2  0
 13 32  1  0
 14 15  1  0
 14 16  1  0
 15 33  1  0
 16 17  2  0
 16 34  1  0
 17 35  1  0
 18 19  2  0
 18 36  1  0
 19 20  1  0
 20 21  1  0
 21 37  1  0
 21 38  1  0
 21 39  1  0
M  END

