
     RDKit          3D

 86 95  0  0  0  0  0  0  0  0999 V2000
   -4.6527    2.9142    2.2102 C   0  0  0  0  0  0  0  0  0  0  0  0
   -5.2025    1.5624    1.6817 C   0  0  2  0  0  0  0  0  0  0  0  0
   -6.7328    1.4960    1.9314 C   0  0  0  0  0  0  0  0  0  0  0  0
   -4.5207    0.4150    2.4404 C   0  0  0  0  0  0  0  0  0  0  0  0
   -4.6689    0.3272    3.8334 C   0  0  0  0  0  0  0  0  0  0  0  0
   -4.0790   -0.6824    4.5932 C   0  0  0  0  0  0  0  0  0  0  0  0
   -3.3079   -1.6475    3.9437 C   0  0  0  0  0  0  0  0  0  0  0  0
   -3.1381   -1.5912    2.5636 C   0  0  0  0  0  0  0  0  0  0  0  0
   -3.7356   -0.5677    1.7948 C   0  0  0  0  0  0  0  0  0  0  0  0
   -3.5444   -0.5347    0.4017 N   0  0  0  0  0  0  0  0  0  0  0  0
   -2.7554   -1.5578   -0.2193 C   0  0  0  0  0  0  0  0  0  0  0  0
   -3.3639   -2.7485   -0.6612 C   0  0  0  0  0  0  0  0  0  0  0  0
   -2.5939   -3.7314   -1.2603 C   0  0  0  0  0  0  0  0  0  0  0  0
   -1.2046   -3.5571   -1.4350 C   0  0  0  0  0  0  0  0  0  0  0  0
   -0.5776   -2.3604   -0.9935 C   0  0  0  0  0  0  0  0  0  0  0  0
   -1.3876   -1.3752   -0.3860 C   0  0  0  0  0  0  0  0  0  0  0  0
    0.8703   -2.1805   -1.1758 C   0  0  0  0  0  0  0  0  0  0  0  0
    1.5419   -1.0110   -0.7550 C   0  0  0  0  0  0  0  0  0  0  0  0
    2.9116   -0.8537   -0.9323 C   0  0  0  0  0  0  0  0  0  0  0  0
    3.5577    0.3475   -0.4912 N   0  0  0  0  0  0  0  0  0  0  0  0
    4.0810    0.4046    0.8132 C   0  0  0  0  0  0  0  0  0  0  0  0
    3.9514   -0.7085    1.6733 C   0  0  0  0  0  0  0  0  0  0  0  0
    4.4568   -0.6794    2.9697 C   0  0  0  0  0  0  0  0  0  0  0  0
    5.1050    0.4628    3.4419 C   0  0  0  0  0  0  0  0  0  0  0  0
    5.2333    1.5607    2.5917 C   0  0  0  0  0  0  0  0  0  0  0  0
    4.7376    1.5669    1.2786 C   0  0  0  0  0  0  0  0  0  0  0  0
    4.9198    2.8205    0.4112 C   0  0  2  0  0  0  0  0  0  0  0  0
    6.4347    3.1317    0.2828 C   0  0  0  0  0  0  0  0  0  0  0  0
    4.2045    4.0161    1.0951 C   0  0  0  0  0  0  0  0  0  0  0  0
    4.3286    2.6205   -0.9915 C   0  0  0  0  0  0  0  0  0  0  0  0
    4.4184    3.6596   -1.9308 C   0  0  0  0  0  0  0  0  0  0  0  0
    3.9037    3.5561   -3.2226 C   0  0  0  0  0  0  0  0  0  0  0  0
    3.2720    2.3703   -3.6002 C   0  0  0  0  0  0  0  0  0  0  0  0
    3.1635    1.3192   -2.6946 C   0  0  0  0  0  0  0  0  0  0  0  0
    3.6846    1.4253   -1.3859 C   0  0  0  0  0  0  0  0  0  0  0  0
    3.6622   -1.8756   -1.5451 C   0  0  0  0  0  0  0  0  0  0  0  0
    3.0295   -3.0326   -1.9681 C   0  0  0  0  0  0  0  0  0  0  0  0
    1.6399   -3.2035   -1.7932 C   0  0  0  0  0  0  0  0  0  0  0  0
    0.9894   -4.4309   -2.2456 C   0  0  0  0  0  0  0  0  0  0  0  0
    1.7323   -5.3907   -2.8296 N   0  0  0  0  0  0  0  0  0  0  0  0
    1.1163   -6.4902   -3.2289 C   0  0  0  0  0  0  0  0  0  0  0  0
   -0.2712   -6.6628   -3.0540 C   0  0  0  0  0  0  0  0  0  0  0  0
   -1.0173   -5.7326   -2.4831 N   0  0  0  0  0  0  0  0  0  0  0  0
   -0.4082   -4.6046   -2.0695 C   0  0  0  0  0  0  0  0  0  0  0  0
   -4.1388    0.4547   -0.4023 C   0  0  0  0  0  0  0  0  0  0  0  0
   -3.9390    0.4394   -1.8006 C   0  0  0  0  0  0  0  0  0  0  0  0
   -4.5122    1.4070   -2.6204 C   0  0  0  0  0  0  0  0  0  0  0  0
   -5.3002    2.4162   -2.0652 C   0  0  0  0  0  0  0  0  0  0  0  0
   -5.4974    2.4300   -0.6848 C   0  0  0  0  0  0  0  0  0  0  0  0
   -4.9366    1.4705    0.1725 C   0  0  0  0  0  0  0  0  0  0  0  0
   -5.1306    3.7647    1.7006 H   0  0  0  0  0  0  0  0  0  0  0  0
   -4.8397    3.0251    3.2893 H   0  0  0  0  0  0  0  0  0  0  0  0
   -3.5669    2.9853    2.0445 H   0  0  0  0  0  0  0  0  0  0  0  0
   -7.1469    0.5444    1.5647 H   0  0  0  0  0  0  0  0  0  0  0  0
   -6.9655    1.5772    3.0039 H   0  0  0  0  0  0  0  0  0  0  0  0
   -7.2566    2.3156    1.4165 H   0  0  0  0  0  0  0  0  0  0  0  0
   -5.2706    1.0808    4.3460 H   0  0  0  0  0  0  0  0  0  0  0  0
   -4.2206   -0.7122    5.6758 H   0  0  0  0  0  0  0  0  0  0  0  0
   -2.8317   -2.4525    4.5093 H   0  0  0  0  0  0  0  0  0  0  0  0
   -2.5330   -2.3514    2.0719 H   0  0  0  0  0  0  0  0  0  0  0  0
   -4.4390   -2.8819   -0.5253 H   0  0  0  0  0  0  0  0  0  0  0  0
   -3.0398   -4.6624   -1.6115 H   0  0  0  0  0  0  0  0  0  0  0  0
   -0.9569   -0.4400   -0.0302 H   0  0  0  0  0  0  0  0  0  0  0  0
    0.9987   -0.1968   -0.2769 H   0  0  0  0  0  0  0  0  0  0  0  0
    3.4478   -1.6071    1.3202 H   0  0  0  0  0  0  0  0  0  0  0  0
    4.3395   -1.5575    3.6098 H   0  0  0  0  0  0  0  0  0  0  0  0
    5.5058    0.5017    4.4572 H   0  0  0  0  0  0  0  0  0  0  0  0
    5.7406    2.4526    2.9656 H   0  0  0  0  0  0  0  0  0  0  0  0
    6.6061    4.0367   -0.3194 H   0  0  0  0  0  0  0  0  0  0  0  0
    6.9649    2.2966   -0.1999 H   0  0  0  0  0  0  0  0  0  0  0  0
    6.8921    3.2997    1.2696 H   0  0  0  0  0  0  0  0  0  0  0  0
    3.1264    3.8191    1.1973 H   0  0  0  0  0  0  0  0  0  0  0  0
    4.3270    4.9405    0.5103 H   0  0  0  0  0  0  0  0  0  0  0  0
    4.6127    4.2019    2.1003 H   0  0  0  0  0  0  0  0  0  0  0  0
    4.9112    4.5897   -1.6394 H   0  0  0  0  0  0  0  0  0  0  0  0
    3.9957    4.3904   -3.9214 H   0  0  0  0  0  0  0  0  0  0  0  0
    2.8577    2.2560   -4.6052 H   0  0  0  0  0  0  0  0  0  0  0  0
    2.6669    0.4009   -3.0044 H   0  0  0  0  0  0  0  0  0  0  0  0
    4.7375   -1.7419   -1.6794 H   0  0  0  0  0  0  0  0  0  0  0  0
    3.5870   -3.8389   -2.4456 H   0  0  0  0  0  0  0  0  0  0  0  0
    1.7215   -7.2709   -3.7042 H   0  0  0  0  0  0  0  0  0  0  0  0
   -0.7675   -7.5804   -3.3904 H   0  0  0  0  0  0  0  0  0  0  0  0
   -3.3263   -0.3410   -2.2494 H   0  0  0  0  0  0  0  0  0  0  0  0
   -4.3377    1.3668   -3.6987 H   0  0  0  0  0  0  0  0  0  0  0  0
   -5.7558    3.1835   -2.6950 H   0  0  0  0  0  0  0  0  0  0  0  0
   -6.1141    3.2221   -0.2546 H   0  0  0  0  0  0  0  0  0  0  0  0
  2  1  1  1
  1 51  1  0
  1 52  1  0
  1 53  1  0
  2  3  1  0
  2  4  1  0
  2 50  1  0
  3 54  1  0
  3 55  1  0
  3 56  1  0
  4  5  1  0
  4  9  2  0
  5  6  2  0
  5 57  1  0
  6  7  1  0
  6 58  1  0
  7  8  2  0
  7 59  1  0
  8  9  1  0
  8 60  1  0
  9 10  1  0
 10 11  1  0
 10 45  1  0
 11 12  2  0
 11 16  1  0
 12 13  1  0
 12 61  1  0
 13 14  2  0
 13 62  1  0
 14 15  1  0
 14 44  1  0
 15 16  2  0
 15 17  1  0
 16 63  1  0
 17 18  2  0
 17 38  1  0
 18 19  1  0
 18 64  1  0
 19 20  1  0
 19 36  2  0
 20 21  1  0
 20 35  1  0
 21 22  2  0
 21 26  1  0
 22 23  1  0
 22 65  1  0
 23 24  2  0
 23 66  1  0
 24 25  1  0
 24 67  1  0
 25 26  2  0
 25 68  1  0
 26 27  1  0
 27 28  1  6
 27 29  1  0
 27 30  1  0
 28 69  1  0
 28 70  1  0
 28 71  1  0
 29 72  1  0
 29 73  1  0
 29 74  1  0
 30 31  2  0
 30 35  1  0
 31 32  1  0
 31 75  1  0
 32 33  2  0
 32 76  1  0
 33 34  1  0
 33 77  1  0
 34 35  2  0
 34 78  1  0
 36 37  1  0
 36 79  1  0
 37 38  2  0
 37 80  1  0
 38 39  1  0
 39 40  1  0
 39 44  2  0
 40 41  2  0
 41 42  1  0
 41 81  1  0
 42 43  2  0
 42 82  1  0
 43 44  1  0
 45 46  1  0
 45 50  2  0
 46 47  2  0
 46 83  1  0
 47 48  1  0
 47 84  1  0
 48 49  2  0
 48 85  1  0
 49 50  1  0
 49 86  1  0
M  END

