
     RDKit          3D

 59 63  0  0  0  0  0  0  0  0999 V2000
    5.9821   -0.6365   10.4886 C   0  0  0  0  0  0  0  0  0  0  0  0
    6.6794    0.1429    9.3729 C   0  0  0  0  0  0  0  0  0  0  0  0
    6.9086   -0.6837    8.1043 C   0  0  0  0  0  0  0  0  0  0  0  0
    7.6220    0.1035    6.9885 C   0  0  0  0  0  0  0  0  0  0  0  0
    7.9283   -0.7081    5.7656 C   0  0  0  0  0  0  0  0  0  0  0  0
    9.0728   -1.3283    5.5592 N   0  0  0  0  0  0  0  0  0  0  0  0
    8.9145   -1.9852    4.3734 C   0  0  0  0  0  0  0  0  0  0  0  0
    9.7274   -2.7928    3.6181 N   0  0  0  0  0  0  0  0  0  0  0  0
    9.1123   -3.1833    2.5486 C   0  0  0  0  0  0  0  0  0  0  0  0
    9.7900   -4.0440    1.5094 C   0  0  0  0  0  0  0  0  0  0  0  0
   10.9443   -4.6366    2.0271 O   0  0  0  0  0  0  0  0  0  0  0  0
    7.4339   -2.5777    2.3425 S   0  0  0  0  0  0  0  0  0  0  0  0
    7.6495   -1.7563    3.8509 C   0  0  0  0  0  0  0  0  0  0  0  0
    7.0000   -0.9385    4.7408 N   0  0  0  0  0  0  0  0  0  0  0  0
    5.6424   -0.4272    4.6139 C   0  0  0  0  0  0  0  0  0  0  0  0
    5.4386    0.5161    3.4415 C   0  0  0  0  0  0  0  0  0  0  0  0
    6.3924    1.4821    3.1036 C   0  0  0  0  0  0  0  0  0  0  0  0
    6.1812    2.3805    2.0529 C   0  0  0  0  0  0  0  0  0  0  0  0
    4.9879    2.3225    1.3157 C   0  0  0  0  0  0  0  0  0  0  0  0
    4.6817    3.1442    0.2801 O   0  0  0  0  0  0  0  0  0  0  0  0
    5.6075    4.1295   -0.1315 C   0  0  0  0  0  0  0  0  0  0  0  0
    5.0607    4.8929   -1.3153 C   0  0  0  0  0  0  0  0  0  0  0  0
    4.0326    4.3780   -2.1154 C   0  0  0  0  0  0  0  0  0  0  0  0
    3.5746    5.0879   -3.2259 C   0  0  0  0  0  0  0  0  0  0  0  0
    4.1404    6.3279   -3.5608 C   0  0  0  0  0  0  0  0  0  0  0  0
    3.6540    7.0681   -4.7306 C   0  0  0  0  0  0  0  0  0  0  0  0
    2.6539    6.6299   -5.5503 N   0  0  0  0  0  0  0  0  0  0  0  0
    2.4946    7.5334   -6.4694 N   0  0  0  0  0  0  0  0  0  0  0  0
    3.3783    8.4801   -6.1981 N   0  0  0  0  0  0  0  0  0  0  0  0
    3.4693    9.3161   -6.7687 H   0  0  0  0  0  0  0  0  0  0  0  0
    4.1254    8.2493   -5.1336 N   0  0  0  0  0  0  0  0  0  0  0  0
    5.1713    6.8469   -2.7592 C   0  0  0  0  0  0  0  0  0  0  0  0
    5.6203    6.1364   -1.6488 C   0  0  0  0  0  0  0  0  0  0  0  0
    4.0235    1.3549    1.6450 C   0  0  0  0  0  0  0  0  0  0  0  0
    4.2530    0.4658    2.6900 C   0  0  0  0  0  0  0  0  0  0  0  0
    5.8361   -0.0140   11.3855 H   0  0  0  0  0  0  0  0  0  0  0  0
    6.5708   -1.5195   10.7880 H   0  0  0  0  0  0  0  0  0  0  0  0
    4.9896   -0.9959   10.1681 H   0  0  0  0  0  0  0  0  0  0  0  0
    7.6520    0.5206    9.7367 H   0  0  0  0  0  0  0  0  0  0  0  0
    6.0853    1.0408    9.1213 H   0  0  0  0  0  0  0  0  0  0  0  0
    5.9391   -1.0649    7.7337 H   0  0  0  0  0  0  0  0  0  0  0  0
    7.5131   -1.5758    8.3422 H   0  0  0  0  0  0  0  0  0  0  0  0
    8.5914    0.4635    7.3647 H   0  0  0  0  0  0  0  0  0  0  0  0
    7.0340    1.0008    6.7282 H   0  0  0  0  0  0  0  0  0  0  0  0
   10.0161   -3.4085    0.6245 H   0  0  0  0  0  0  0  0  0  0  0  0
    9.0932   -4.8272    1.1569 H   0  0  0  0  0  0  0  0  0  0  0  0
   11.1875   -4.1162    2.8116 H   0  0  0  0  0  0  0  0  0  0  0  0
    5.3976    0.0788    5.5596 H   0  0  0  0  0  0  0  0  0  0  0  0
    4.9466   -1.2787    4.5294 H   0  0  0  0  0  0  0  0  0  0  0  0
    7.3312    1.5361    3.6614 H   0  0  0  0  0  0  0  0  0  0  0  0
    6.9526    3.1143    1.8204 H   0  0  0  0  0  0  0  0  0  0  0  0
    6.5686    3.6511   -0.4077 H   0  0  0  0  0  0  0  0  0  0  0  0
    5.8228    4.8285    0.6988 H   0  0  0  0  0  0  0  0  0  0  0  0
    3.5863    3.4170   -1.8578 H   0  0  0  0  0  0  0  0  0  0  0  0
    2.7714    4.6870   -3.8466 H   0  0  0  0  0  0  0  0  0  0  0  0
    5.6111    7.8138   -3.0113 H   0  0  0  0  0  0  0  0  0  0  0  0
    6.4179    6.5578   -1.0294 H   0  0  0  0  0  0  0  0  0  0  0  0
    3.1029    1.3156    1.0595 H   0  0  0  0  0  0  0  0  0  0  0  0
    3.4930   -0.2854    2.9252 H   0  0  0  0  0  0  0  0  0  0  0  0
  1  2  1  0
  1 36  1  0
  1 37  1  0
  1 38  1  0
  2  3  1  0
  2 39  1  0
  2 40  1  0
  3  4  1  0
  3 41  1  0
  3 42  1  0
  4  5  1  0
  4 43  1  0
  4 44  1  0
  5  6  2  0
  5 14  1  0
  6  7  1  0
  7  8  1  0
  7 13  2  0
  8  9  2  0
  9 10  1  0
  9 12  1  0
 10 11  1  0
 10 45  1  0
 10 46  1  0
 11 47  1  0
 12 13  1  0
 13 14  1  0
 14 15  1  0
 15 16  1  0
 15 48  1  0
 15 49  1  0
 16 17  2  0
 16 35  1  0
 17 18  1  0
 17 50  1  0
 18 19  2  0
 18 51  1  0
 19 20  1  0
 19 34  1  0
 20 21  1  0
 21 22  1  0
 21 52  1  0
 21 53  1  0
 22 23  2  0
 22 33  1  0
 23 24  1  0
 23 54  1  0
 24 25  2  0
 24 55  1  0
 25 26  1  0
 25 32  1  0
 26 27  1  0
 26 31  2  0
 27 28  2  0
 28 29  1  0
 29 30  1  0
 29 31  1  0
 32 33  2  0
 32 56  1  0
 33 57  1  0
 34 35  2  0
 34 58  1  0
 35 59  1  0
M  END

