
     RDKit          3D

 65 68  0  0  0  0  0  0  0  0999 V2000
    3.0435   -1.1874    4.8820 C   0  0  0  0  0  0  0  0  0  0  0  0
    2.4679   -0.4133    3.6912 C   0  0  1  0  0  0  0  0  0  0  0  0
    2.6727   -1.1550    2.3660 C   0  0  0  0  0  0  0  0  0  0  0  0
    0.9868   -0.1009    3.9136 C   0  0  0  0  0  0  0  0  0  0  0  0
    3.0765    0.9212    3.6186 O   0  0  0  0  0  0  0  0  0  0  0  0
    4.3916    1.1079    3.4274 C   0  0  0  0  0  0  0  0  0  0  0  0
    5.2045    0.2179    3.2959 O   0  0  0  0  0  0  0  0  0  0  0  0
    4.7542    2.5638    3.3948 C   0  0  0  0  0  0  0  0  0  0  0  0
    3.8046    3.5793    3.5710 C   0  0  0  0  0  0  0  0  0  0  0  0
    4.2281    4.9106    3.5234 C   0  0  0  0  0  0  0  0  0  0  0  0
    5.5675    5.2272    3.3112 C   0  0  0  0  0  0  0  0  0  0  0  0
    6.5354    4.2122    3.1373 C   0  0  0  0  0  0  0  0  0  0  0  0
    7.8686    4.5666    2.9717 N   0  0  0  0  0  0  0  0  0  0  0  0
    8.9239    3.6491    2.5970 C   0  0  1  0  0  0  0  0  0  0  0  0
    8.8786    3.1817    1.1423 C   0  0  0  0  0  0  0  0  0  0  0  0
    8.4680    4.0188    0.1013 C   0  0  0  0  0  0  0  0  0  0  0  0
    8.4876    3.5380   -1.2090 C   0  0  0  0  0  0  0  0  0  0  0  0
    8.9212    2.2280   -1.4320 C   0  0  0  0  0  0  0  0  0  0  0  0
    9.3067    1.4110   -0.4483 N   0  0  0  0  0  0  0  0  0  0  0  0
    9.2773    1.8813    0.7985 C   0  0  0  0  0  0  0  0  0  0  0  0
   10.2897    4.2467    2.9738 C   0  0  0  0  0  0  0  0  0  0  0  0
   10.4356    5.1191    4.0544 C   0  0  0  0  0  0  0  0  0  0  0  0
   11.7214    5.5800    4.3692 C   0  0  0  0  0  0  0  0  0  0  0  0
   12.8075    5.1617    3.6170 C   0  0  0  0  0  0  0  0  0  0  0  0
   14.0761    5.5524    3.9801 O   0  0  0  0  0  0  0  0  0  0  0  0
   14.8350    6.2567    3.0729 C   0  0  1  0  0  0  0  0  0  0  0  0
   14.2975    7.4868    2.8786 F   0  0  0  0  0  0  0  0  0  0  0  0
   16.0404    6.4120    3.6303 F   0  0  0  0  0  0  0  0  0  0  0  0
   12.5606    4.2632    2.5468 C   0  0  0  0  0  0  0  0  0  0  0  0
   13.6149    3.8497    1.8237 O   0  0  0  0  0  0  0  0  0  0  0  0
   13.3833    2.9248    0.7432 C   0  0  0  0  0  0  0  0  0  0  0  0
   14.7030    2.6072    0.1018 C   0  0  1  0  0  0  0  0  0  0  0  0
   15.6202    1.5838    0.7224 C   0  0  0  0  0  0  0  0  0  0  0  0
   14.8934    1.2620   -0.5565 C   0  0  0  0  0  0  0  0  0  0  0  0
   11.3446    3.8417    2.2526 N   0  0  0  0  0  0  0  0  0  0  0  0
    6.1032    2.8752    3.1725 C   0  0  0  0  0  0  0  0  0  0  0  0
    2.4994   -2.1373    5.0019 H   0  0  0  0  0  0  0  0  0  0  0  0
    2.9244   -0.6069    5.8103 H   0  0  0  0  0  0  0  0  0  0  0  0
    4.1084   -1.4076    4.7361 H   0  0  0  0  0  0  0  0  0  0  0  0
    2.1135   -2.1036    2.3842 H   0  0  0  0  0  0  0  0  0  0  0  0
    3.7335   -1.3747    2.1924 H   0  0  0  0  0  0  0  0  0  0  0  0
    2.2931   -0.5516    1.5266 H   0  0  0  0  0  0  0  0  0  0  0  0
    0.4071   -1.0336    3.9864 H   0  0  0  0  0  0  0  0  0  0  0  0
    0.5866    0.4942    3.0789 H   0  0  0  0  0  0  0  0  0  0  0  0
    0.8463    0.4704    4.8438 H   0  0  0  0  0  0  0  0  0  0  0  0
    2.7585    3.3252    3.7377 H   0  0  0  0  0  0  0  0  0  0  0  0
    3.5031    5.7180    3.6555 H   0  0  0  0  0  0  0  0  0  0  0  0
    5.8810    6.2754    3.2839 H   0  0  0  0  0  0  0  0  0  0  0  0
    8.0396    5.5434    2.7649 H   0  0  0  0  0  0  0  0  0  0  0  0
    8.8163    2.7465    3.2262 H   0  0  0  0  0  0  0  0  0  0  0  0
    8.1282    5.0368    0.3098 H   0  0  0  0  0  0  0  0  0  0  0  0
    8.1700    4.1659   -2.0449 H   0  0  0  0  0  0  0  0  0  0  0  0
    8.9518    1.8207   -2.4498 H   0  0  0  0  0  0  0  0  0  0  0  0
    9.5913    1.1869    1.5885 H   0  0  0  0  0  0  0  0  0  0  0  0
    9.5728    5.4224    4.6468 H   0  0  0  0  0  0  0  0  0  0  0  0
   11.8976    6.2608    5.2045 H   0  0  0  0  0  0  0  0  0  0  0  0
   14.9269    5.7531    2.0985 H   0  0  0  0  0  0  0  0  0  0  0  0
   12.6763    3.3775    0.0294 H   0  0  0  0  0  0  0  0  0  0  0  0
   12.9013    2.0176    1.1421 H   0  0  0  0  0  0  0  0  0  0  0  0
   15.1827    3.4621   -0.3881 H   0  0  0  0  0  0  0  0  0  0  0  0
   15.2866    1.0941    1.6423 H   0  0  0  0  0  0  0  0  0  0  0  0
   16.6973    1.7664    0.6798 H   0  0  0  0  0  0  0  0  0  0  0  0
   14.0647    0.5484   -0.5147 H   0  0  0  0  0  0  0  0  0  0  0  0
   15.4636    1.2258   -1.4886 H   0  0  0  0  0  0  0  0  0  0  0  0
    6.7916    2.0442    3.0240 H   0  0  0  0  0  0  0  0  0  0  0  0
  1  2  1  0
  1 37  1  0
  1 38  1  0
  1 39  1  0
  2  3  1  0
  2  4  1  0
  2  5  1  6
  3 40  1  0
  3 41  1  0
  3 42  1  0
  4 43  1  0
  4 44  1  0
  4 45  1  0
  5  6  1  0
  6  7  2  0
  6  8  1  0
  8  9  2  0
  8 36  1  0
  9 10  1  0
  9 46  1  0
 10 11  2  0
 10 47  1  0
 11 12  1  0
 11 48  1  0
 12 13  1  0
 12 36  2  0
 13 14  1  0
 13 49  1  0
 14 15  1  0
 14 21  1  0
 14 50  1  1
 15 16  2  0
 15 20  1  0
 16 17  1  0
 16 51  1  0
 17 18  2  0
 17 52  1  0
 18 19  1  0
 18 53  1  0
 19 20  2  0
 20 54  1  0
 21 22  2  0
 21 35  1  0
 22 23  1  0
 22 55  1  0
 23 24  2  0
 23 56  1  0
 24 25  1  0
 24 29  1  0
 25 26  1  0
 26 27  1  0
 26 28  1  0
 26 57  1  6
 29 30  1  0
 29 35  2  0
 30 31  1  0
 31 32  1  0
 31 58  1  0
 31 59  1  0
 32 33  1  0
 32 34  1  0
 32 60  1  6
 33 34  1  0
 33 61  1  0
 33 62  1  0
 34 63  1  0
 34 64  1  0
 36 65  1  0
M  END

