
     RDKit          3D

 30 32  0  0  0  0  0  0  0  0999 V2000
    0.8417    0.5846    1.2544 N   0  0  0  0  0  0  0  0  0  0  0  0
    2.0469    0.5391    0.4446 C   0  0  0  0  0  0  0  0  0  0  0  0
    2.8444    1.7915    0.6261 C   0  0  0  0  0  0  0  0  0  0  0  0
    2.4049    2.9981    0.7917 N   0  0  0  0  0  0  0  0  0  0  0  0
    3.5685    3.7483    0.8394 C   0  0  0  0  0  0  0  0  0  0  0  0
    3.5248    5.2067    1.0294 C   0  0  0  0  0  0  0  0  0  0  0  0
    2.2640    5.8180    1.1834 C   0  0  0  0  0  0  0  0  0  0  0  0
    2.1532    7.1917    1.3571 C   0  0  0  0  0  0  0  0  0  0  0  0
    3.3044    7.9966    1.3847 C   0  0  0  0  0  0  0  0  0  0  0  0
    4.5513    7.4021    1.2437 C   0  0  0  0  0  0  0  0  0  0  0  0
    6.0233    8.3716    1.2794 Cl  0  0  0  0  0  0  0  0  0  0  0  0
    4.6930    6.0086    1.0599 C   0  0  0  0  0  0  0  0  0  0  0  0
    5.8997    5.4421    0.9114 O   0  0  0  0  0  0  0  0  0  0  0  0
    2.9448    9.4464    1.6002 C   0  0  0  0  0  0  0  0  0  0  0  0
    1.4295    9.4785    1.2840 C   0  0  0  0  0  0  0  0  0  0  0  0
    0.9193    8.0452    1.5685 C   0  0  0  0  0  0  0  0  0  0  0  0
    4.6607    3.0263    0.7009 N   0  0  0  0  0  0  0  0  0  0  0  0
    4.1769    1.7265    0.5619 O   0  0  0  0  0  0  0  0  0  0  0  0
    0.2154   -0.1764    0.9966 H   0  0  0  0  0  0  0  0  0  0  0  0
    0.3444    1.4585    1.0798 H   0  0  0  0  0  0  0  0  0  0  0  0
    1.8781    0.4287   -0.6513 H   0  0  0  0  0  0  0  0  0  0  0  0
    2.6792   -0.3138    0.7411 H   0  0  0  0  0  0  0  0  0  0  0  0
    1.3825    5.1761    1.1586 H   0  0  0  0  0  0  0  0  0  0  0  0
    6.5744    6.1397    0.9597 H   0  0  0  0  0  0  0  0  0  0  0  0
    3.5371   10.1327    0.9752 H   0  0  0  0  0  0  0  0  0  0  0  0
    3.1469    9.7284    2.6506 H   0  0  0  0  0  0  0  0  0  0  0  0
    1.2903    9.7081    0.2147 H   0  0  0  0  0  0  0  0  0  0  0  0
    0.8910   10.2493    1.8553 H   0  0  0  0  0  0  0  0  0  0  0  0
    0.0752    7.7545    0.9231 H   0  0  0  0  0  0  0  0  0  0  0  0
    0.5657    7.9503    2.6123 H   0  0  0  0  0  0  0  0  0  0  0  0
  1  2  1  0
  1 19  1  0
  1 20  1  0
  2  3  1  0
  2 21  1  0
  2 22  1  0
  3  4  2  0
  3 18  1  0
  4  5  1  0
  5  6  1  0
  5 17  2  0
  6  7  2  0
  6 12  1  0
  7  8  1  0
  7 23  1  0
  8  9  2  0
  8 16  1  0
  9 10  1  0
  9 14  1  0
 10 11  1  0
 10 12  2  0
 12 13  1  0
 13 24  1  0
 14 15  1  0
 14 25  1  0
 14 26  1  0
 15 16  1  0
 15 27  1  0
 15 28  1  0
 16 29  1  0
 16 30  1  0
 17 18  1  0
M  END

