
     RDKit          3D

 34 36  0  0  0  0  0  0  0  0999 V2000
    1.4103    2.3178   -0.8495 C   0  0  0  0  0  0  0  0  0  0  0  0
    2.0994    1.8888   -2.1459 C   0  0  0  0  0  0  0  0  0  0  0  0
    3.0485    0.7970   -1.9737 N   0  0  0  0  0  0  0  0  0  0  0  0
    4.3442    0.9756   -1.6238 C   0  0  0  0  0  0  0  0  0  0  0  0
    4.7754    2.2372   -1.4817 N   0  0  0  0  0  0  0  0  0  0  0  0
    6.0486    2.4376   -1.1597 C   0  0  0  0  0  0  0  0  0  0  0  0
    6.5088    3.8570   -1.0143 C   0  0  0  0  0  0  0  0  0  0  0  0
    7.8443    4.1382   -0.6772 C   0  0  0  0  0  0  0  0  0  0  0  0
    8.2480    5.4651   -0.5484 C   0  0  0  0  0  0  0  0  0  0  0  0
    7.2982    6.4652   -0.7618 C   0  0  0  0  0  0  0  0  0  0  0  0
    7.7230    8.1494   -0.6199 Cl  0  0  0  0  0  0  0  0  0  0  0  0
    5.9865    6.0965   -1.0948 C   0  0  0  0  0  0  0  0  0  0  0  0
    5.6099    4.8300   -1.2158 N   0  0  0  0  0  0  0  0  0  0  0  0
    6.9571    1.4846   -0.9494 N   0  0  0  0  0  0  0  0  0  0  0  0
    6.5744    0.1975   -1.0733 C   0  0  0  0  0  0  0  0  0  0  0  0
    7.6224   -0.8281   -0.8266 C   0  0  1  0  0  0  0  0  0  0  0  0
    9.0578   -0.5350   -1.2290 C   0  0  0  0  0  0  0  0  0  0  0  0
    8.6922   -0.5602    0.2183 C   0  0  0  0  0  0  0  0  0  0  0  0
    5.2534   -0.1059   -1.4173 C   0  0  0  0  0  0  0  0  0  0  0  0
    4.5555   -2.1134   -1.6465 I   0  0  0  0  0  0  0  0  0  0  0  0
    0.6831    3.1209   -1.0510 H   0  0  0  0  0  0  0  0  0  0  0  0
    2.1506    2.7011   -0.1314 H   0  0  0  0  0  0  0  0  0  0  0  0
    0.8700    1.4782   -0.3820 H   0  0  0  0  0  0  0  0  0  0  0  0
    2.6455    2.7415   -2.5726 H   0  0  0  0  0  0  0  0  0  0  0  0
    1.3538    1.5605   -2.8887 H   0  0  0  0  0  0  0  0  0  0  0  0
    2.7075   -0.1561   -2.0167 H   0  0  0  0  0  0  0  0  0  0  0  0
    8.5412    3.3154   -0.5223 H   0  0  0  0  0  0  0  0  0  0  0  0
    9.2759    5.7248   -0.2881 H   0  0  0  0  0  0  0  0  0  0  0  0
    5.2311    6.8720   -1.2650 H   0  0  0  0  0  0  0  0  0  0  0  0
    7.2924   -1.8620   -0.9281 H   0  0  0  0  0  0  0  0  0  0  0  0
    9.2396    0.4401   -1.6874 H   0  0  0  0  0  0  0  0  0  0  0  0
    9.6354   -1.3647   -1.6461 H   0  0  0  0  0  0  0  0  0  0  0  0
    8.6265    0.3980    0.7394 H   0  0  0  0  0  0  0  0  0  0  0  0
    9.0094   -1.4078    0.8321 H   0  0  0  0  0  0  0  0  0  0  0  0
  1  2  1  0
  1 21  1  0
  1 22  1  0
  1 23  1  0
  2  3  1  0
  2 24  1  0
  2 25  1  0
  3  4  1  0
  3 26  1  0
  4  5  2  0
  4 19  1  0
  5  6  1  0
  6  7  1  0
  6 14  2  0
  7  8  2  0
  7 13  1  0
  8  9  1  0
  8 27  1  0
  9 10  2  0
  9 28  1  0
 10 11  1  0
 10 12  1  0
 12 13  2  0
 12 29  1  0
 14 15  1  0
 15 16  1  0
 15 19  2  0
 16 17  1  0
 16 18  1  0
 16 30  1  1
 17 18  1  0
 17 31  1  0
 17 32  1  0
 18 33  1  0
 18 34  1  0
 19 20  1  0
M  END

