
     RDKit          3D

 51 53  0  0  0  0  0  0  0  0999 V2000
    1.2867    0.0976    0.9713 C   0  0  0  0  0  0  0  0  0  0  0  0
    2.3477    0.1403   -0.1392 C   0  0  1  0  0  0  0  0  0  0  0  0
    3.0784    1.4875   -0.1199 C   0  0  0  0  0  0  0  0  0  0  0  0
    3.3321   -1.0598   -0.0260 C   0  0  1  0  0  0  0  0  0  0  0  0
    2.6570   -2.4272   -0.2974 C   0  0  0  0  0  0  0  0  0  0  0  0
    2.3426   -2.6649   -1.7036 N   0  0  0  0  0  0  0  0  0  0  0  0
    3.4770   -2.4750   -2.6320 C   0  0  2  0  0  0  0  0  0  0  0  0
    2.9095   -2.3919   -4.0537 C   0  0  0  0  0  0  0  0  0  0  0  0
    4.4021   -3.7033   -2.5432 C   0  0  0  0  0  0  0  0  0  0  0  0
    4.2297   -1.1504   -2.3072 C   0  0  0  0  0  0  0  0  0  0  0  0
    4.5078   -0.9057   -0.8948 N   0  0  0  0  0  0  0  0  0  0  0  0
    5.7763   -1.3840   -0.3584 C   0  0  0  0  0  0  0  0  0  0  0  0
    6.9942   -0.7909   -1.0477 C   0  0  0  0  0  0  0  0  0  0  0  0
    8.0270   -1.6177   -1.5144 C   0  0  0  0  0  0  0  0  0  0  0  0
    9.1772   -1.0823   -2.1105 C   0  0  0  0  0  0  0  0  0  0  0  0
    9.2947    0.3001   -2.2435 C   0  0  0  0  0  0  0  0  0  0  0  0
    8.2633    1.1395   -1.7840 C   0  0  0  0  0  0  0  0  0  0  0  0
    7.1214    0.6026   -1.1935 C   0  0  0  0  0  0  0  0  0  0  0  0
    8.6089    2.5893   -2.0560 C   0  0  0  0  0  0  0  0  0  0  0  0
   10.1338    2.5451   -2.3167 C   0  0  0  0  0  0  0  0  0  0  0  0
   10.4076    1.1216   -2.8594 C   0  0  0  0  0  0  0  0  0  0  0  0
    0.5893    0.9454    0.8777 H   0  0  0  0  0  0  0  0  0  0  0  0
    1.7571    0.1666    1.9677 H   0  0  0  0  0  0  0  0  0  0  0  0
    0.6838   -0.8230    0.9522 H   0  0  0  0  0  0  0  0  0  0  0  0
    1.8170    0.0627   -1.1067 H   0  0  0  0  0  0  0  0  0  0  0  0
    3.6543    1.6086    0.8143 H   0  0  0  0  0  0  0  0  0  0  0  0
    2.3603    2.3218   -0.1773 H   0  0  0  0  0  0  0  0  0  0  0  0
    3.7837    1.5794   -0.9567 H   0  0  0  0  0  0  0  0  0  0  0  0
    3.7035   -1.0613    1.0142 H   0  0  0  0  0  0  0  0  0  0  0  0
    1.7322   -2.5443    0.2886 H   0  0  0  0  0  0  0  0  0  0  0  0
    3.3350   -3.2245    0.0516 H   0  0  0  0  0  0  0  0  0  0  0  0
    1.5694   -2.0657   -1.9901 H   0  0  0  0  0  0  0  0  0  0  0  0
    2.3393   -3.3031   -4.2924 H   0  0  0  0  0  0  0  0  0  0  0  0
    3.7158   -2.2809   -4.7958 H   0  0  0  0  0  0  0  0  0  0  0  0
    2.2333   -1.5267   -4.1633 H   0  0  0  0  0  0  0  0  0  0  0  0
    3.8499   -4.6083   -2.8402 H   0  0  0  0  0  0  0  0  0  0  0  0
    4.7813   -3.8692   -1.5252 H   0  0  0  0  0  0  0  0  0  0  0  0
    5.2737   -3.5873   -3.2067 H   0  0  0  0  0  0  0  0  0  0  0  0
    3.6044   -0.3181   -2.6831 H   0  0  0  0  0  0  0  0  0  0  0  0
    5.1766   -1.0976   -2.8669 H   0  0  0  0  0  0  0  0  0  0  0  0
    5.8857   -2.4894   -0.3568 H   0  0  0  0  0  0  0  0  0  0  0  0
    5.8018   -1.0840    0.7041 H   0  0  0  0  0  0  0  0  0  0  0  0
    7.9322   -2.7021   -1.4042 H   0  0  0  0  0  0  0  0  0  0  0  0
    9.9698   -1.7481   -2.4642 H   0  0  0  0  0  0  0  0  0  0  0  0
    6.3166    1.2506   -0.8368 H   0  0  0  0  0  0  0  0  0  0  0  0
    8.3310    3.2656   -1.2318 H   0  0  0  0  0  0  0  0  0  0  0  0
    8.0656    2.9453   -2.9518 H   0  0  0  0  0  0  0  0  0  0  0  0
   10.6679    2.6760   -1.3606 H   0  0  0  0  0  0  0  0  0  0  0  0
   10.4795    3.3398   -2.9949 H   0  0  0  0  0  0  0  0  0  0  0  0
   11.4144    0.7504   -2.6088 H   0  0  0  0  0  0  0  0  0  0  0  0
   10.3295    1.0988   -3.9631 H   0  0  0  0  0  0  0  0  0  0  0  0
  1  2  1  0
  1 22  1  0
  1 23  1  0
  1 24  1  0
  2  3  1  0
  2  4  1  0
  2 25  1  6
  3 26  1  0
  3 27  1  0
  3 28  1  0
  4  5  1  0
  4 11  1  0
  4 29  1  1
  5  6  1  0
  5 30  1  0
  5 31  1  0
  6  7  1  0
  6 32  1  0
  7  8  1  6
  7  9  1  0
  7 10  1  0
  8 33  1  0
  8 34  1  0
  8 35  1  0
  9 36  1  0
  9 37  1  0
  9 38  1  0
 10 11  1  0
 10 39  1  0
 10 40  1  0
 11 12  1  0
 12 13  1  0
 12 41  1  0
 12 42  1  0
 13 14  2  0
 13 18  1  0
 14 15  1  0
 14 43  1  0
 15 16  2  0
 15 44  1  0
 16 17  1  0
 16 21  1  0
 17 18  2  0
 17 19  1  0
 18 45  1  0
 19 20  1  0
 19 46  1  0
 19 47  1  0
 20 21  1  0
 20 48  1  0
 20 49  1  0
 21 50  1  0
 21 51  1  0
M  END

