
     RDKit          3D

 46 49  0  0  0  0  0  0  0  0999 V2000
    4.5281   -5.9654   -4.1862 C   0  0  0  0  0  0  0  0  0  0  0  0
    3.9999   -5.2688   -2.9588 C   0  0  0  0  0  0  0  0  0  0  0  0
    2.7508   -5.5868   -2.3975 C   0  0  0  0  0  0  0  0  0  0  0  0
    2.2722   -4.9284   -1.2613 C   0  0  0  0  0  0  0  0  0  0  0  0
    0.7020   -5.3623   -0.6134 Cl  0  0  0  0  0  0  0  0  0  0  0  0
    3.0226   -3.9263   -0.6301 C   0  0  0  0  0  0  0  0  0  0  0  0
    4.2604   -3.6073   -1.1699 C   0  0  0  0  0  0  0  0  0  0  0  0
    4.7323   -4.2633   -2.3180 C   0  0  0  0  0  0  0  0  0  0  0  0
    5.9787   -3.7424   -2.6767 N   0  0  0  0  0  0  0  0  0  0  0  0
    6.4042   -2.7654   -1.8065 C   0  0  0  0  0  0  0  0  0  0  0  0
    7.3974   -2.0824   -1.9169 O   0  0  0  0  0  0  0  0  0  0  0  0
    5.2927   -2.5900   -0.7239 C   0  0  1  0  0  0  0  0  0  0  0  0
    4.7657   -1.2836   -0.8463 O   0  0  0  0  0  0  0  0  0  0  0  0
    5.7689   -2.8227    0.7508 C   0  0  1  0  0  0  0  0  0  0  0  0
    6.3806   -4.2100    0.9570 C   0  0  0  0  0  0  0  0  0  0  0  0
    6.9613   -4.7701    0.0426 O   0  0  0  0  0  0  0  0  0  0  0  0
    6.3037   -4.8726    2.2906 C   0  0  0  0  0  0  0  0  0  0  0  0
    5.6054   -4.4071    3.3608 C   0  0  0  0  0  0  0  0  0  0  0  0
    5.5585   -5.1258    4.7102 C   0  0  0  0  0  0  0  0  0  0  0  0
    6.7808   -6.0158    4.8521 C   0  0  0  0  0  0  0  0  0  0  0  0
    7.1409   -6.5632    3.6943 C   0  0  0  0  0  0  0  0  0  0  0  0
    6.8440   -6.2577    2.4338 C   0  0  0  0  0  0  0  0  0  0  0  0
    6.7001   -1.7283    1.2686 C   0  0  0  0  0  0  0  0  0  0  0  0
    6.1496   -0.6068    1.9126 C   0  0  0  0  0  0  0  0  0  0  0  0
    6.9687    0.4220    2.3862 C   0  0  0  0  0  0  0  0  0  0  0  0
    8.3548    0.3409    2.2273 C   0  0  0  0  0  0  0  0  0  0  0  0
    8.9125   -0.7700    1.5874 C   0  0  0  0  0  0  0  0  0  0  0  0
    8.0939   -1.7950    1.1076 C   0  0  0  0  0  0  0  0  0  0  0  0
    3.8224   -6.7257   -4.5493 H   0  0  0  0  0  0  0  0  0  0  0  0
    5.4877   -6.4715   -3.9821 H   0  0  0  0  0  0  0  0  0  0  0  0
    4.7034   -5.2541   -5.0124 H   0  0  0  0  0  0  0  0  0  0  0  0
    2.1368   -6.3635   -2.8577 H   0  0  0  0  0  0  0  0  0  0  0  0
    2.6280   -3.4151    0.2494 H   0  0  0  0  0  0  0  0  0  0  0  0
    6.5343   -4.0323   -3.4719 H   0  0  0  0  0  0  0  0  0  0  0  0
    5.5208   -0.6730   -0.8251 H   0  0  0  0  0  0  0  0  0  0  0  0
    4.8416   -2.7524    1.3381 H   0  0  0  0  0  0  0  0  0  0  0  0
    5.0175   -3.4886    3.2846 H   0  0  0  0  0  0  0  0  0  0  0  0
    4.5690   -5.6220    4.8001 H   0  0  0  0  0  0  0  0  0  0  0  0
    5.5725   -4.3786    5.5219 H   0  0  0  0  0  0  0  0  0  0  0  0
    7.4304   -5.9274    5.7288 H   0  0  0  0  0  0  0  0  0  0  0  0
    6.7225   -6.9581    1.6028 H   0  0  0  0  0  0  0  0  0  0  0  0
    5.0658   -0.5375    2.0377 H   0  0  0  0  0  0  0  0  0  0  0  0
    6.5214    1.2867    2.8833 H   0  0  0  0  0  0  0  0  0  0  0  0
    8.9987    1.1415    2.6002 H   0  0  0  0  0  0  0  0  0  0  0  0
    9.9950   -0.8387    1.4538 H   0  0  0  0  0  0  0  0  0  0  0  0
    8.5416   -2.6458    0.5922 H   0  0  0  0  0  0  0  0  0  0  0  0
  1  2  1  0
  1 29  1  0
  1 30  1  0
  1 31  1  0
  2  3  1  0
  2  8  1  0
  3  4  1  0
  3 32  1  0
  4  5  1  0
  4  6  1  0
  6  7  1  0
  6 33  1  0
  7  8  1  0
  7 12  1  0
  8  9  1  0
  9 10  1  0
  9 34  1  0
 10 11  1  0
 10 12  1  0
 12 13  1  1
 12 14  1  0
 13 35  1  0
 14 15  1  0
 14 23  1  0
 14 36  1  1
 15 16  1  0
 15 17  1  0
 17 18  1  0
 17 22  1  0
 18 19  1  0
 18 37  1  0
 19 20  1  0
 19 38  1  0
 19 39  1  0
 20 21  1  0
 20 40  1  0
 21 22  1  0
 22 41  1  0
 23 24  1  0
 23 28  1  0
 24 25  1  0
 24 42  1  0
 25 26  1  0
 25 43  1  0
 26 27  1  0
 26 44  1  0
 27 28  1  0
 27 45  1  0
 28 46  1  0
M  CHG  8   2  -1   3   1   4  -1   6   1   7  -1   8   1  10  -1  11  -1
M  CHG  8  15   1  16  -1  17   1  18   1  20  -1  22   1  23   1  24  -1
M  CHG  4  25   1  26  -1  27   1  28  -1
M  END

