
     RDKit          3D

 36 38  0  0  0  0  0  0  0  0999 V2000
    2.5239   -1.3527    0.5658 O   0  0  0  0  0  0  0  0  0  0  0  0
    2.5476   -0.2191    0.1381 C   0  0  0  0  0  0  0  0  0  0  0  0
    2.1605    0.8080    0.9032 O   0  0  0  0  0  0  0  0  0  0  0  0
    3.0230    0.1196   -1.2436 C   0  0  0  0  0  0  0  0  0  0  0  0
    3.4380   -0.8885   -2.0619 C   0  0  0  0  0  0  0  0  0  0  0  0
    3.4412   -2.3828   -1.8324 C   0  0  0  0  0  0  0  0  0  0  0  0
    3.7718   -2.9795   -3.2139 C   0  0  0  0  0  0  0  0  0  0  0  0
    4.5771   -1.8799   -3.9141 C   0  0  0  0  0  0  0  0  0  0  0  0
    4.0361   -0.6565   -3.3040 N   0  0  0  0  0  0  0  0  0  0  0  0
    4.1540    0.5800   -3.9042 C   0  0  0  0  0  0  0  0  0  0  0  0
    4.7879    0.7715   -4.9154 O   0  0  0  0  0  0  0  0  0  0  0  0
    3.3042    1.6545   -3.2192 C   0  0  2  0  0  0  0  0  0  0  0  0
    3.7367    2.8954   -3.6063 F   0  0  0  0  0  0  0  0  0  0  0  0
    3.2959    1.5563   -1.6904 C   0  0  1  0  0  0  0  0  0  0  0  0
    2.3434    2.5311   -1.1167 N   0  0  0  0  0  0  0  0  0  0  0  0
    2.7406    3.8853   -0.9708 C   0  0  0  0  0  0  0  0  0  0  0  0
    3.8179    4.2738   -0.1636 C   0  0  0  0  0  0  0  0  0  0  0  0
    4.1605    5.6195   -0.0152 C   0  0  0  0  0  0  0  0  0  0  0  0
    3.4049    6.6001   -0.6641 C   0  0  0  0  0  0  0  0  0  0  0  0
    3.8547    8.4379   -0.4558 Br  0  0  0  0  0  0  0  0  0  0  0  0
    2.3141    6.2471   -1.4638 C   0  0  0  0  0  0  0  0  0  0  0  0
    2.0103    4.8997   -1.6058 C   0  0  0  0  0  0  0  0  0  0  0  0
    0.9706    4.5339   -2.3800 F   0  0  0  0  0  0  0  0  0  0  0  0
    2.1338    1.6311    0.3517 H   0  0  0  0  0  0  0  0  0  0  0  0
    2.4965   -2.7282   -1.3967 H   0  0  0  0  0  0  0  0  0  0  0  0
    4.2086   -2.6203   -1.0762 H   0  0  0  0  0  0  0  0  0  0  0  0
    2.8427   -3.1737   -3.7736 H   0  0  0  0  0  0  0  0  0  0  0  0
    4.3246   -3.9268   -3.1488 H   0  0  0  0  0  0  0  0  0  0  0  0
    4.4519   -1.8367   -5.0045 H   0  0  0  0  0  0  0  0  0  0  0  0
    5.6589   -1.9531   -3.7062 H   0  0  0  0  0  0  0  0  0  0  0  0
    2.2682    1.5165   -3.5907 H   0  0  0  0  0  0  0  0  0  0  0  0
    4.3002    1.8588   -1.3404 H   0  0  0  0  0  0  0  0  0  0  0  0
    1.4458    2.4778   -1.5984 H   0  0  0  0  0  0  0  0  0  0  0  0
    4.3896    3.5110    0.3698 H   0  0  0  0  0  0  0  0  0  0  0  0
    5.0035    5.9035    0.6156 H   0  0  0  0  0  0  0  0  0  0  0  0
    1.7105    6.9917   -1.9833 H   0  0  0  0  0  0  0  0  0  0  0  0
  1  2  2  0
  2  3  1  0
  2  4  1  0
  3 24  1  0
  4  5  2  0
  4 14  1  0
  5  6  1  0
  5  9  1  0
  6  7  1  0
  6 25  1  0
  6 26  1  0
  7  8  1  0
  7 27  1  0
  7 28  1  0
  8  9  1  0
  8 29  1  0
  8 30  1  0
  9 10  1  0
 10 11  2  0
 10 12  1  0
 12 13  1  0
 12 14  1  0
 12 31  1  6
 14 15  1  0
 14 32  1  1
 15 16  1  0
 15 33  1  0
 16 17  2  0
 16 22  1  0
 17 18  1  0
 17 34  1  0
 18 19  2  0
 18 35  1  0
 19 20  1  0
 19 21  1  0
 21 22  2  0
 21 36  1  0
 22 23  1  0
M  END

