
     RDKit          3D

 19 19  0  0  0  0  0  0  0  0999 V2000
    0.6770    2.2974   -0.5478 C   0  0  0  0  0  0  0  0  0  0  0  0
    2.1185    2.3211   -0.6907 N   0  0  0  0  0  0  0  0  0  0  0  0
    2.7804    1.0733   -0.3481 C   0  0  0  0  0  0  0  0  0  0  0  0
    4.2638    1.1596   -0.5505 C   0  0  0  0  0  0  0  0  0  0  0  0
    4.9153    2.0576   -1.9035 S   0  0  0  0  0  0  0  0  0  0  0  0
    6.5341    1.6726   -1.4445 C   0  0  0  0  0  0  0  0  0  0  0  0
    6.5787    0.8973   -0.3164 C   0  0  0  0  0  0  0  0  0  0  0  0
    5.2744    0.5930    0.2060 C   0  0  0  0  0  0  0  0  0  0  0  0
    5.0876   -0.1437    1.3820 N   0  0  0  0  0  0  0  0  0  0  0  0
    0.2596    3.2868   -0.7917 H   0  0  0  0  0  0  0  0  0  0  0  0
    0.3166    2.0165    0.4682 H   0  0  0  0  0  0  0  0  0  0  0  0
    0.2402    1.5729   -1.2565 H   0  0  0  0  0  0  0  0  0  0  0  0
    2.5249    3.0835   -0.1497 H   0  0  0  0  0  0  0  0  0  0  0  0
    2.3386    0.2826   -0.9877 H   0  0  0  0  0  0  0  0  0  0  0  0
    2.5881    0.7485    0.7025 H   0  0  0  0  0  0  0  0  0  0  0  0
    7.3758    2.0470   -2.0257 H   0  0  0  0  0  0  0  0  0  0  0  0
    7.5059    0.5519    0.1462 H   0  0  0  0  0  0  0  0  0  0  0  0
    5.8751   -0.7346    1.6274 H   0  0  0  0  0  0  0  0  0  0  0  0
    4.2216   -0.6701    1.4251 H   0  0  0  0  0  0  0  0  0  0  0  0
  1  2  1  0
  1 10  1  0
  1 11  1  0
  1 12  1  0
  2  3  1  0
  2 13  1  0
  3  4  1  0
  3 14  1  0
  3 15  1  0
  4  5  1  0
  4  8  2  0
  5  6  1  0
  6  7  2  0
  6 16  1  0
  7  8  1  0
  7 17  1  0
  8  9  1  0
  9 18  1  0
  9 19  1  0
M  END

