
     RDKit          3D

 43 45  0  0  0  0  0  0  0  0999 V2000
    0.9200    0.3370   -0.4415 C   0  0  0  0  0  0  0  0  0  0  0  0
    2.3594    0.2390    0.0039 C   0  0  0  0  0  0  0  0  0  0  0  0
    2.9228    1.2198    0.8353 C   0  0  0  0  0  0  0  0  0  0  0  0
    4.2665    1.1764    1.2312 C   0  0  0  0  0  0  0  0  0  0  0  0
    4.8603    2.2621    2.0962 C   0  0  0  0  0  0  0  0  0  0  0  0
    5.0582    0.1078    0.7843 C   0  0  0  0  0  0  0  0  0  0  0  0
    4.5160   -0.8805   -0.0392 C   0  0  0  0  0  0  0  0  0  0  0  0
    5.3322   -2.0001   -0.4491 N   0  0  0  0  0  0  0  0  0  0  0  0
    5.2673   -3.1505    0.4629 C   0  0  0  0  0  0  0  0  0  0  0  0
    5.5571   -4.5188   -0.1494 C   0  0  0  0  0  0  0  0  0  0  0  0
    7.0448   -4.7343   -0.3580 C   0  0  0  0  0  0  0  0  0  0  0  0
    7.6640   -5.6352    0.1802 O   0  0  0  0  0  0  0  0  0  0  0  0
    7.6644   -3.7777   -1.1166 N   0  0  0  0  0  0  0  0  0  0  0  0
    7.0713   -2.8913   -2.1236 C   0  0  2  0  0  0  0  0  0  0  0  0
    6.3646   -3.6870   -3.2981 C   0  0  0  0  0  0  0  0  0  0  0  0
    7.1375   -3.3429   -4.5852 C   0  0  0  0  0  0  0  0  0  0  0  0
    8.5473   -3.0055   -4.0896 C   0  0  0  0  0  0  0  0  0  0  0  0
    8.2566   -2.1720   -2.8372 C   0  0  0  0  0  0  0  0  0  0  0  0
    6.0796   -1.8147   -1.5916 C   0  0  0  0  0  0  0  0  0  0  0  0
    5.9303   -0.8018   -2.2583 O   0  0  0  0  0  0  0  0  0  0  0  0
    3.1742   -0.8158   -0.4267 C   0  0  0  0  0  0  0  0  0  0  0  0
    0.2935    0.8285    0.3186 H   0  0  0  0  0  0  0  0  0  0  0  0
    0.4907   -0.6549   -0.6499 H   0  0  0  0  0  0  0  0  0  0  0  0
    0.8340    0.9308   -1.3684 H   0  0  0  0  0  0  0  0  0  0  0  0
    2.2933    2.0441    1.1848 H   0  0  0  0  0  0  0  0  0  0  0  0
    4.0823    2.8182    2.6402 H   0  0  0  0  0  0  0  0  0  0  0  0
    5.4203    2.9911    1.4847 H   0  0  0  0  0  0  0  0  0  0  0  0
    5.5664    1.8508    2.8346 H   0  0  0  0  0  0  0  0  0  0  0  0
    6.1099    0.0413    1.0750 H   0  0  0  0  0  0  0  0  0  0  0  0
    4.2413   -3.1606    0.8602 H   0  0  0  0  0  0  0  0  0  0  0  0
    5.9322   -2.9890    1.3323 H   0  0  0  0  0  0  0  0  0  0  0  0
    4.9956   -4.6428   -1.0899 H   0  0  0  0  0  0  0  0  0  0  0  0
    5.2255   -5.3020    0.5453 H   0  0  0  0  0  0  0  0  0  0  0  0
    8.6623   -3.9456   -1.2117 H   0  0  0  0  0  0  0  0  0  0  0  0
    5.2948   -3.4447   -3.3810 H   0  0  0  0  0  0  0  0  0  0  0  0
    6.4433   -4.7632   -3.0819 H   0  0  0  0  0  0  0  0  0  0  0  0
    6.6944   -2.4527   -5.0606 H   0  0  0  0  0  0  0  0  0  0  0  0
    7.1109   -4.1601   -5.3229 H   0  0  0  0  0  0  0  0  0  0  0  0
    9.1533   -2.4597   -4.8295 H   0  0  0  0  0  0  0  0  0  0  0  0
    9.0971   -3.9298   -3.8356 H   0  0  0  0  0  0  0  0  0  0  0  0
    7.9134   -1.1729   -3.1327 H   0  0  0  0  0  0  0  0  0  0  0  0
    9.1151   -2.0468   -2.1585 H   0  0  0  0  0  0  0  0  0  0  0  0
    2.7686   -1.5960   -1.0761 H   0  0  0  0  0  0  0  0  0  0  0  0
  1  2  1  0
  1 22  1  0
  1 23  1  0
  1 24  1  0
  2  3  2  0
  2 21  1  0
  3  4  1  0
  3 25  1  0
  4  5  1  0
  4  6  2  0
  5 26  1  0
  5 27  1  0
  5 28  1  0
  6  7  1  0
  6 29  1  0
  7  8  1  0
  7 21  2  0
  8  9  1  0
  8 19  1  0
  9 10  1  0
  9 30  1  0
  9 31  1  0
 10 11  1  0
 10 32  1  0
 10 33  1  0
 11 12  2  0
 11 13  1  0
 13 14  1  0
 13 34  1  0
 14 15  1  0
 14 18  1  0
 14 19  1  1
 15 16  1  0
 15 35  1  0
 15 36  1  0
 16 17  1  0
 16 37  1  0
 16 38  1  0
 17 18  1  0
 17 39  1  0
 17 40  1  0
 18 41  1  0
 18 42  1  0
 19 20  2  0
 21 43  1  0
M  END

