
     RDKit          3D

 50 51  0  0  0  0  0  0  0  0999 V2000
    3.4601   -8.2166   -0.7506 C   0  0  0  0  0  0  0  0  0  0  0  0
    2.9269   -7.2501   -1.7808 C   0  0  0  0  0  0  0  0  0  0  0  0
    3.5914   -7.0834   -3.0036 C   0  0  0  0  0  0  0  0  0  0  0  0
    3.1293   -6.1874   -3.9719 C   0  0  0  0  0  0  0  0  0  0  0  0
    1.9832   -5.4341   -3.7195 C   0  0  0  0  0  0  0  0  0  0  0  0
    1.3084   -5.5882   -2.5047 C   0  0  0  0  0  0  0  0  0  0  0  0
    1.7594   -6.4890   -1.5324 C   0  0  0  0  0  0  0  0  0  0  0  0
    1.0349   -6.6561   -0.2062 C   0  0  0  0  0  0  0  0  0  0  0  0
   -0.2541   -6.0005   -0.1227 N   0  0  0  0  0  0  0  0  0  0  0  0
   -0.5437   -5.0489    0.8149 C   0  0  0  0  0  0  0  0  0  0  0  0
    0.2676   -4.6530    1.6362 O   0  0  0  0  0  0  0  0  0  0  0  0
   -1.9782   -4.5237    0.7900 C   0  0  1  0  0  0  0  0  0  0  0  0
   -2.8034   -4.9809    2.0100 C   0  0  0  0  0  0  0  0  0  0  0  0
   -3.7577   -3.8180    2.2830 C   0  0  0  0  0  0  0  0  0  0  0  0
   -4.7294   -3.8299    3.0161 O   0  0  0  0  0  0  0  0  0  0  0  0
   -3.2966   -2.7364    1.5805 N   0  0  0  0  0  0  0  0  0  0  0  0
   -3.8888   -1.4204    1.7370 C   0  0  0  0  0  0  0  0  0  0  0  0
   -3.3329   -0.6340    2.9322 C   0  0  0  0  0  0  0  0  0  0  0  0
   -4.0933    0.6684    3.1992 C   0  0  0  0  0  0  0  0  0  0  0  0
   -5.5318    0.4970    3.3503 N   0  0  0  0  0  0  0  0  0  0  0  0
   -5.9113   -0.3529    4.4664 C   0  0  0  0  0  0  0  0  0  0  0  0
   -6.2306    1.7658    3.3626 C   0  0  0  0  0  0  0  0  0  0  0  0
   -2.0401   -2.9816    0.8907 C   0  0  0  0  0  0  0  0  0  0  0  0
    4.3915   -8.6889   -1.0942 H   0  0  0  0  0  0  0  0  0  0  0  0
    2.7396   -9.0236   -0.5309 H   0  0  0  0  0  0  0  0  0  0  0  0
    3.6727   -7.7161    0.2092 H   0  0  0  0  0  0  0  0  0  0  0  0
    4.4943   -7.6693   -3.1984 H   0  0  0  0  0  0  0  0  0  0  0  0
    3.6673   -6.0783   -4.9169 H   0  0  0  0  0  0  0  0  0  0  0  0
    1.6124   -4.7236   -4.4628 H   0  0  0  0  0  0  0  0  0  0  0  0
    0.4174   -4.9898   -2.3037 H   0  0  0  0  0  0  0  0  0  0  0  0
    1.6386   -6.2380    0.6156 H   0  0  0  0  0  0  0  0  0  0  0  0
    0.9156   -7.7321    0.0144 H   0  0  0  0  0  0  0  0  0  0  0  0
   -0.9885   -6.2977   -0.7538 H   0  0  0  0  0  0  0  0  0  0  0  0
   -2.4913   -4.8424   -0.1323 H   0  0  0  0  0  0  0  0  0  0  0  0
   -2.1580   -5.1002    2.8968 H   0  0  0  0  0  0  0  0  0  0  0  0
   -3.3563   -5.9193    1.8642 H   0  0  0  0  0  0  0  0  0  0  0  0
   -4.9704   -1.5573    1.8718 H   0  0  0  0  0  0  0  0  0  0  0  0
   -3.7446   -0.8554    0.8000 H   0  0  0  0  0  0  0  0  0  0  0  0
   -2.2697   -0.3864    2.7708 H   0  0  0  0  0  0  0  0  0  0  0  0
   -3.3652   -1.2837    3.8215 H   0  0  0  0  0  0  0  0  0  0  0  0
   -3.9313    1.3584    2.3520 H   0  0  0  0  0  0  0  0  0  0  0  0
   -3.6420    1.1668    4.0916 H   0  0  0  0  0  0  0  0  0  0  0  0
   -5.5271   -1.3753    4.3345 H   0  0  0  0  0  0  0  0  0  0  0  0
   -7.0090   -0.4245    4.5156 H   0  0  0  0  0  0  0  0  0  0  0  0
   -5.5545    0.0337    5.4502 H   0  0  0  0  0  0  0  0  0  0  0  0
   -5.9903    2.3430    2.4550 H   0  0  0  0  0  0  0  0  0  0  0  0
   -5.9762    2.4037    4.2425 H   0  0  0  0  0  0  0  0  0  0  0  0
   -7.3196    1.5995    3.3777 H   0  0  0  0  0  0  0  0  0  0  0  0
   -1.1707   -2.6095    1.4622 H   0  0  0  0  0  0  0  0  0  0  0  0
   -2.0335   -2.4975   -0.1005 H   0  0  0  0  0  0  0  0  0  0  0  0
  1  2  1  0
  1 24  1  0
  1 25  1  0
  1 26  1  0
  2  3  2  0
  2  7  1  0
  3  4  1  0
  3 27  1  0
  4  5  2  0
  4 28  1  0
  5  6  1  0
  5 29  1  0
  6  7  2  0
  6 30  1  0
  7  8  1  0
  8  9  1  0
  8 31  1  0
  8 32  1  0
  9 10  1  0
  9 33  1  0
 10 11  2  0
 10 12  1  0
 12 13  1  0
 12 23  1  0
 12 34  1  6
 13 14  1  0
 13 35  1  0
 13 36  1  0
 14 15  2  0
 14 16  1  0
 16 17  1  0
 16 23  1  0
 17 18  1  0
 17 37  1  0
 17 38  1  0
 18 19  1  0
 18 39  1  0
 18 40  1  0
 19 20  1  0
 19 41  1  0
 19 42  1  0
 20 21  1  0
 20 22  1  0
 21 43  1  0
 21 44  1  0
 21 45  1  0
 22 46  1  0
 22 47  1  0
 22 48  1  0
 23 49  1  0
 23 50  1  0
M  END

