
     RDKit          3D

 39 39  0  0  0  0  0  0  0  0999 V2000
    3.8247    2.1576    3.3054 C   0  0  0  0  0  0  0  0  0  0  0  0
    3.5941    0.7884    2.6613 C   0  0  0  0  0  0  0  0  0  0  0  0
    4.4812    0.5014    1.4328 C   0  0  2  0  0  0  0  0  0  0  0  0
    4.1233    1.3852    0.2316 C   0  0  0  0  0  0  0  0  0  0  0  0
    4.4174   -1.0006    1.0156 C   0  0  2  0  0  0  0  0  0  0  0  0
    4.9736   -1.0945    0.0698 H   0  0  0  0  0  0  0  0  0  0  0  0
    3.0439   -1.4105    0.7548 N   0  0  0  0  0  0  0  0  0  0  0  0
    5.0759   -1.9006    2.0915 C   0  0  0  0  0  0  0  0  0  0  0  0
    4.3516   -2.5061    2.8772 O   0  0  0  0  0  0  0  0  0  0  0  0
    6.4449   -1.9791    2.1668 N   0  0  0  0  0  0  0  0  0  0  0  0
    7.3662   -1.2955    1.2760 C   0  0  0  0  0  0  0  0  0  0  0  0
    7.0340   -2.7768    3.2650 C   0  0  1  0  0  0  0  0  0  0  0  0
    7.5907   -4.1120    2.7557 C   0  0  0  0  0  0  0  0  0  0  0  0
    8.0653   -1.9870    4.0545 C   0  0  1  0  0  0  0  0  0  0  0  0
    7.6195   -0.9027    5.0024 C   0  0  0  0  0  0  0  0  0  0  0  0
    8.1723   -2.1959    5.5451 C   0  0  0  0  0  0  0  0  0  0  0  0
    3.1889    2.2853    4.1962 H   0  0  0  0  0  0  0  0  0  0  0  0
    3.5927    2.9877    2.6192 H   0  0  0  0  0  0  0  0  0  0  0  0
    4.8729    2.2793    3.6284 H   0  0  0  0  0  0  0  0  0  0  0  0
    2.5370    0.6922    2.3600 H   0  0  0  0  0  0  0  0  0  0  0  0
    3.7633    0.0054    3.4195 H   0  0  0  0  0  0  0  0  0  0  0  0
    5.5258    0.7184    1.7227 H   0  0  0  0  0  0  0  0  0  0  0  0
    3.1193    1.1249   -0.1368 H   0  0  0  0  0  0  0  0  0  0  0  0
    4.8349    1.2383   -0.5982 H   0  0  0  0  0  0  0  0  0  0  0  0
    4.1375    2.4550    0.4900 H   0  0  0  0  0  0  0  0  0  0  0  0
    2.6421   -1.7220    1.6426 H   0  0  0  0  0  0  0  0  0  0  0  0
    3.0436   -2.2435    0.1663 H   0  0  0  0  0  0  0  0  0  0  0  0
    6.8846   -1.0292    0.3286 H   0  0  0  0  0  0  0  0  0  0  0  0
    8.2138   -1.9557    1.0334 H   0  0  0  0  0  0  0  0  0  0  0  0
    7.7761   -0.3730    1.7230 H   0  0  0  0  0  0  0  0  0  0  0  0
    6.1851   -2.9947    3.9264 H   0  0  0  0  0  0  0  0  0  0  0  0
    8.4277   -3.9715    2.0515 H   0  0  0  0  0  0  0  0  0  0  0  0
    6.8052   -4.6918    2.2479 H   0  0  0  0  0  0  0  0  0  0  0  0
    7.9691   -4.7100    3.5992 H   0  0  0  0  0  0  0  0  0  0  0  0
    9.0157   -1.8145    3.5353 H   0  0  0  0  0  0  0  0  0  0  0  0
    6.5438   -0.7278    5.0990 H   0  0  0  0  0  0  0  0  0  0  0  0
    8.2301    0.0009    5.0853 H   0  0  0  0  0  0  0  0  0  0  0  0
    7.4722   -2.8943    6.0137 H   0  0  0  0  0  0  0  0  0  0  0  0
    9.1670   -2.1890    5.9996 H   0  0  0  0  0  0  0  0  0  0  0  0
  1  2  1  0
  1 17  1  0
  1 18  1  0
  1 19  1  0
  2  3  1  0
  2 20  1  0
  2 21  1  0
  3  4  1  0
  3  5  1  0
  3 22  1  1
  4 23  1  0
  4 24  1  0
  4 25  1  0
  5  6  1  6
  5  7  1  0
  5  8  1  0
  7 26  1  0
  7 27  1  0
  8  9  2  0
  8 10  1  0
 10 11  1  0
 10 12  1  0
 11 28  1  0
 11 29  1  0
 11 30  1  0
 12 13  1  0
 12 14  1  0
 12 31  1  1
 13 32  1  0
 13 33  1  0
 13 34  1  0
 14 15  1  0
 14 16  1  0
 14 35  1  6
 15 16  1  0
 15 36  1  0
 15 37  1  0
 16 38  1  0
 16 39  1  0
M  END

