
     RDKit          3D

 55 61  0  0  0  0  0  0  0  0999 V2000
   -1.0948    5.9413   -2.1868 N   0  0  0  0  0  0  0  0  0  0  0  0
   -1.5294    4.9232   -1.8352 C   0  0  0  0  0  0  0  0  0  0  0  0
   -2.0674    3.6644   -1.4005 C   0  0  0  0  0  0  0  0  0  0  0  0
   -3.4659    3.4731   -1.3720 C   0  0  0  0  0  0  0  0  0  0  0  0
   -4.0026    2.2573   -0.9528 C   0  0  0  0  0  0  0  0  0  0  0  0
   -3.1354    1.2297   -0.5608 C   0  0  0  0  0  0  0  0  0  0  0  0
   -1.7381    1.4195   -0.5886 C   0  0  0  0  0  0  0  0  0  0  0  0
   -1.1969    2.6275   -1.0051 C   0  0  0  0  0  0  0  0  0  0  0  0
   -0.9930    0.1580   -0.1164 C   0  0  1  0  0  0  0  0  0  0  0  0
   -2.1835   -0.7709    0.1814 C   0  0  0  0  0  0  0  0  0  0  0  0
   -2.1534   -2.0771    0.6490 C   0  0  0  0  0  0  0  0  0  0  0  0
   -3.3726   -2.7552    0.8565 C   0  0  0  0  0  0  0  0  0  0  0  0
   -3.3655   -4.1077    1.3399 C   0  0  0  0  0  0  0  0  0  0  0  0
   -3.3606   -5.2013    1.7308 N   0  0  0  0  0  0  0  0  0  0  0  0
   -4.6015   -2.1128    0.5917 C   0  0  0  0  0  0  0  0  0  0  0  0
   -4.6244   -0.8009    0.1223 C   0  0  0  0  0  0  0  0  0  0  0  0
   -3.4119   -0.1303   -0.0827 C   0  0  0  0  0  0  0  0  0  0  0  0
   -0.1146   -0.4133   -1.2362 C   0  0  0  0  0  0  0  0  0  0  0  0
   -0.7087   -0.7368   -2.4662 C   0  0  0  0  0  0  0  0  0  0  0  0
    0.0232   -1.2552   -3.5303 C   0  0  0  0  0  0  0  0  0  0  0  0
    1.3967   -1.4591   -3.3645 C   0  0  0  0  0  0  0  0  0  0  0  0
    2.0124   -1.1484   -2.1575 C   0  0  0  0  0  0  0  0  0  0  0  0
    1.2723   -0.6217   -1.0733 C   0  0  0  0  0  0  0  0  0  0  0  0
    1.9151   -0.3159    0.1368 N   0  0  0  0  0  0  0  0  0  0  0  0
    3.3282   -0.5452    0.2594 C   0  0  0  0  0  0  0  0  0  0  0  0
    4.2354    0.4682   -0.0751 C   0  0  0  0  0  0  0  0  0  0  0  0
    5.6097    0.2438    0.0451 C   0  0  0  0  0  0  0  0  0  0  0  0
    6.0818   -0.9919    0.4990 C   0  0  0  0  0  0  0  0  0  0  0  0
    5.1765   -2.0043    0.8329 C   0  0  0  0  0  0  0  0  0  0  0  0
    3.8017   -1.7827    0.7139 C   0  0  0  0  0  0  0  0  0  0  0  0
    1.2058    0.2017    1.2323 C   0  0  0  0  0  0  0  0  0  0  0  0
    1.8796    0.4934    2.4413 C   0  0  0  0  0  0  0  0  0  0  0  0
    1.1973    1.0058    3.5388 C   0  0  0  0  0  0  0  0  0  0  0  0
   -0.1788    1.2442    3.4673 C   0  0  0  0  0  0  0  0  0  0  0  0
   -0.8456    0.9588    2.2796 C   0  0  0  0  0  0  0  0  0  0  0  0
   -0.1836    0.4411    1.1551 C   0  0  0  0  0  0  0  0  0  0  0  0
   -4.1222    4.2882   -1.6821 H   0  0  0  0  0  0  0  0  0  0  0  0
   -5.0859    2.1170   -0.9336 H   0  0  0  0  0  0  0  0  0  0  0  0
   -0.1166    2.7832   -1.0300 H   0  0  0  0  0  0  0  0  0  0  0  0
   -1.2071   -2.5806    0.8560 H   0  0  0  0  0  0  0  0  0  0  0  0
   -5.5339   -2.6551    0.7589 H   0  0  0  0  0  0  0  0  0  0  0  0
   -5.5794   -0.3106   -0.0803 H   0  0  0  0  0  0  0  0  0  0  0  0
   -1.7823   -0.5736   -2.5866 H   0  0  0  0  0  0  0  0  0  0  0  0
   -0.4696   -1.4963   -4.4744 H   0  0  0  0  0  0  0  0  0  0  0  0
    1.9985   -1.8645   -4.1817 H   0  0  0  0  0  0  0  0  0  0  0  0
    3.0828   -1.3138   -2.0460 H   0  0  0  0  0  0  0  0  0  0  0  0
    3.8558    1.4294   -0.4285 H   0  0  0  0  0  0  0  0  0  0  0  0
    6.3137    1.0375   -0.2170 H   0  0  0  0  0  0  0  0  0  0  0  0
    7.1565   -1.1663    0.5926 H   0  0  0  0  0  0  0  0  0  0  0  0
    5.5411   -2.9713    1.1880 H   0  0  0  0  0  0  0  0  0  0  0  0
    3.0858   -2.5662    0.9721 H   0  0  0  0  0  0  0  0  0  0  0  0
    2.9510    0.3137    2.5149 H   0  0  0  0  0  0  0  0  0  0  0  0
    1.7490    1.2199    4.4576 H   0  0  0  0  0  0  0  0  0  0  0  0
   -0.7235    1.6464    4.3239 H   0  0  0  0  0  0  0  0  0  0  0  0
   -1.9207    1.1420    2.2142 H   0  0  0  0  0  0  0  0  0  0  0  0
  1  2  3  0
  2  3  1  0
  3  4  2  0
  3  8  1  0
  4  5  1  0
  4 37  1  0
  5  6  2  0
  5 38  1  0
  6  7  1  0
  6 17  1  0
  7  8  2  0
  9  7  1  6
  8 39  1  0
  9 10  1  0
  9 18  1  0
  9 36  1  0
 10 11  1  0
 10 17  2  0
 11 12  2  0
 11 40  1  0
 12 13  1  0
 12 15  1  0
 13 14  3  0
 15 16  2  0
 15 41  1  0
 16 17  1  0
 16 42  1  0
 18 19  2  0
 18 23  1  0
 19 20  1  0
 19 43  1  0
 20 21  2  0
 20 44  1  0
 21 22  1  0
 21 45  1  0
 22 23  2  0
 22 46  1  0
 23 24  1  0
 24 25  1  0
 24 31  1  0
 25 26  2  0
 25 30  1  0
 26 27  1  0
 26 47  1  0
 27 28  2  0
 27 48  1  0
 28 29  1  0
 28 49  1  0
 29 30  2  0
 29 50  1  0
 30 51  1  0
 31 32  2  0
 31 36  1  0
 32 33  1  0
 32 52  1  0
 33 34  2  0
 33 53  1  0
 34 35  1  0
 34 54  1  0
 35 36  2  0
 35 55  1  0
M  END

