
     RDKit          3D

 64 71  0  0  0  0  0  0  0  0999 V2000
    0.1379   -2.5869    2.9055 O   0  0  0  0  0  0  0  0  0  0  0  0
    0.0950   -1.7649    2.0046 C   0  0  0  0  0  0  0  0  0  0  0  0
   -1.2358   -1.3046    1.4810 C   0  0  0  0  0  0  0  0  0  0  0  0
   -2.3432   -1.3911    2.3442 C   0  0  0  0  0  0  0  0  0  0  0  0
   -3.6159   -1.0296    1.9153 C   0  0  0  0  0  0  0  0  0  0  0  0
   -3.8219   -0.6085    0.5891 C   0  0  0  0  0  0  0  0  0  0  0  0
   -5.1168   -0.2536    0.1434 N   0  0  0  0  0  0  0  0  0  0  0  0
   -5.4656    0.9459   -0.4923 C   0  0  0  0  0  0  0  0  0  0  0  0
   -4.6727    2.0594   -0.7981 C   0  0  0  0  0  0  0  0  0  0  0  0
   -5.2878    3.1487   -1.4174 C   0  0  0  0  0  0  0  0  0  0  0  0
   -6.6612    3.1398   -1.7233 C   0  0  0  0  0  0  0  0  0  0  0  0
   -7.4503    2.0360   -1.4030 C   0  0  0  0  0  0  0  0  0  0  0  0
   -6.8568    0.9289   -0.7799 C   0  0  0  0  0  0  0  0  0  0  0  0
   -7.3695   -0.3398   -0.2999 C   0  0  0  0  0  0  0  0  0  0  0  0
   -8.6389   -0.9354   -0.3147 C   0  0  0  0  0  0  0  0  0  0  0  0
   -8.7964   -2.2128    0.2208 C   0  0  0  0  0  0  0  0  0  0  0  0
   -7.6947   -2.9018    0.7610 C   0  0  0  0  0  0  0  0  0  0  0  0
   -6.4211   -2.3314    0.7883 C   0  0  0  0  0  0  0  0  0  0  0  0
   -6.2704   -1.0410    0.2644 C   0  0  0  0  0  0  0  0  0  0  0  0
   -2.7282   -0.5516   -0.2893 C   0  0  0  0  0  0  0  0  0  0  0  0
   -1.4489   -0.8836    0.1571 C   0  0  0  0  0  0  0  0  0  0  0  0
    1.3735   -1.2238    1.4289 C   0  0  0  0  0  0  0  0  0  0  0  0
    1.4972    0.0649    0.8826 C   0  0  0  0  0  0  0  0  0  0  0  0
    2.7305    0.5328    0.4279 C   0  0  0  0  0  0  0  0  0  0  0  0
    3.8714   -0.2803    0.5141 C   0  0  0  0  0  0  0  0  0  0  0  0
    5.1225    0.1891    0.0479 N   0  0  0  0  0  0  0  0  0  0  0  0
    5.7399    1.3908    0.4209 C   0  0  0  0  0  0  0  0  0  0  0  0
    5.3223    2.3631    1.3388 C   0  0  0  0  0  0  0  0  0  0  0  0
    6.1532    3.4657    1.5445 C   0  0  0  0  0  0  0  0  0  0  0  0
    7.3756    3.6015    0.8607 C   0  0  0  0  0  0  0  0  0  0  0  0
    7.7953    2.6235   -0.0398 C   0  0  0  0  0  0  0  0  0  0  0  0
    6.9792    1.5055   -0.2643 C   0  0  0  0  0  0  0  0  0  0  0  0
    7.1138    0.3211   -1.0902 C   0  0  0  0  0  0  0  0  0  0  0  0
    8.0931   -0.1216   -1.9909 C   0  0  0  0  0  0  0  0  0  0  0  0
    7.9041   -1.3295   -2.6608 C   0  0  0  0  0  0  0  0  0  0  0  0
    6.7415   -2.0923   -2.4443 C   0  0  0  0  0  0  0  0  0  0  0  0
    5.7520   -1.6744   -1.5530 C   0  0  0  0  0  0  0  0  0  0  0  0
    5.9530   -0.4679   -0.8702 C   0  0  0  0  0  0  0  0  0  0  0  0
    3.7586   -1.5647    1.0758 C   0  0  0  0  0  0  0  0  0  0  0  0
    2.5268   -2.0227    1.5315 C   0  0  0  0  0  0  0  0  0  0  0  0
   -2.1787   -1.7390    3.3658 H   0  0  0  0  0  0  0  0  0  0  0  0
   -4.4603   -1.0618    2.6060 H   0  0  0  0  0  0  0  0  0  0  0  0
   -3.6093    2.0844   -0.5566 H   0  0  0  0  0  0  0  0  0  0  0  0
   -4.6871    4.0274   -1.6660 H   0  0  0  0  0  0  0  0  0  0  0  0
   -7.1114    4.0082   -2.2100 H   0  0  0  0  0  0  0  0  0  0  0  0
   -8.5194    2.0342   -1.6298 H   0  0  0  0  0  0  0  0  0  0  0  0
   -9.4923   -0.4056   -0.7455 H   0  0  0  0  0  0  0  0  0  0  0  0
   -9.7804   -2.6875    0.2166 H   0  0  0  0  0  0  0  0  0  0  0  0
   -7.8348   -3.9072    1.1660 H   0  0  0  0  0  0  0  0  0  0  0  0
   -5.5739   -2.8821    1.1993 H   0  0  0  0  0  0  0  0  0  0  0  0
   -2.8891   -0.2648   -1.3299 H   0  0  0  0  0  0  0  0  0  0  0  0
   -0.6183   -0.8546   -0.5502 H   0  0  0  0  0  0  0  0  0  0  0  0
    0.6276    0.7214    0.8221 H   0  0  0  0  0  0  0  0  0  0  0  0
    2.8123    1.5302   -0.0073 H   0  0  0  0  0  0  0  0  0  0  0  0
    4.3834    2.2645    1.8851 H   0  0  0  0  0  0  0  0  0  0  0  0
    5.8462    4.2366    2.2558 H   0  0  0  0  0  0  0  0  0  0  0  0
    8.0018    4.4778    1.0438 H   0  0  0  0  0  0  0  0  0  0  0  0
    8.7506    2.7232   -0.5612 H   0  0  0  0  0  0  0  0  0  0  0  0
    8.9908    0.4761   -2.1680 H   0  0  0  0  0  0  0  0  0  0  0  0
    8.6602   -1.6862   -3.3641 H   0  0  0  0  0  0  0  0  0  0  0  0
    6.6058   -3.0317   -2.9862 H   0  0  0  0  0  0  0  0  0  0  0  0
    4.8509   -2.2705   -1.4026 H   0  0  0  0  0  0  0  0  0  0  0  0
    4.6487   -2.1891    1.1707 H   0  0  0  0  0  0  0  0  0  0  0  0
    2.4366   -3.0071    1.9946 H   0  0  0  0  0  0  0  0  0  0  0  0
  1  2  2  0
  2  3  1  0
  2 22  1  0
  3  4  2  0
  3 21  1  0
  4  5  1  0
  4 41  1  0
  5  6  2  0
  5 42  1  0
  6  7  1  0
  6 20  1  0
  7  8  1  0
  7 19  1  0
  8  9  2  0
  8 13  1  0
  9 10  1  0
  9 43  1  0
 10 11  2  0
 10 44  1  0
 11 12  1  0
 11 45  1  0
 12 13  2  0
 12 46  1  0
 13 14  1  0
 14 15  1  0
 14 19  2  0
 15 16  2  0
 15 47  1  0
 16 17  1  0
 16 48  1  0
 17 18  2  0
 17 49  1  0
 18 19  1  0
 18 50  1  0
 20 21  2  0
 20 51  1  0
 21 52  1  0
 22 23  2  0
 22 40  1  0
 23 24  1  0
 23 53  1  0
 24 25  2  0
 24 54  1  0
 25 26  1  0
 25 39  1  0
 26 27  1  0
 26 38  1  0
 27 28  2  0
 27 32  1  0
 28 29  1  0
 28 55  1  0
 29 30  2  0
 29 56  1  0
 30 31  1  0
 30 57  1  0
 31 32  2  0
 31 58  1  0
 32 33  1  0
 33 34  1  0
 33 38  2  0
 34 35  2  0
 34 59  1  0
 35 36  1  0
 35 60  1  0
 36 37  2  0
 36 61  1  0
 37 38  1  0
 37 62  1  0
 39 40  2  0
 39 63  1  0
 40 64  1  0
M  END

