
     RDKit          3D

 46 47  0  0  0  0  0  0  0  0999 V2000
    3.0972    0.6976    0.0519 O   0  0  0  0  0  0  0  0  0  0  0  0
    2.4039   -0.0277   -0.6479 C   0  0  0  0  0  0  0  0  0  0  0  0
    1.1340    0.2150   -1.0339 N   0  0  0  0  0  0  0  0  0  0  0  0
    0.3856    1.3827   -0.6215 C   0  0  0  0  0  0  0  0  0  0  0  0
   -0.5135    1.1307    0.6084 C   0  0  0  0  0  0  0  0  0  0  0  0
   -1.2744    2.3663    1.0334 C   0  0  0  0  0  0  0  0  0  0  0  0
   -2.5905    2.5951    0.6011 C   0  0  0  0  0  0  0  0  0  0  0  0
   -3.2838    3.7542    0.9595 C   0  0  0  0  0  0  0  0  0  0  0  0
   -2.6455    4.6976    1.7603 C   0  0  0  0  0  0  0  0  0  0  0  0
   -3.3037    5.8130    2.1123 F   0  0  0  0  0  0  0  0  0  0  0  0
   -1.3401    4.5070    2.2084 C   0  0  0  0  0  0  0  0  0  0  0  0
   -0.6641    3.3419    1.8401 C   0  0  0  0  0  0  0  0  0  0  0  0
    2.9225   -1.3718   -1.2111 C   0  0  0  0  0  0  0  0  0  0  0  0
    2.2079   -2.0949   -1.8966 O   0  0  0  0  0  0  0  0  0  0  0  0
    4.1952   -1.6123   -0.8567 N   0  0  0  0  0  0  0  0  0  0  0  0
    4.9508   -2.7767   -1.2588 C   0  0  0  0  0  0  0  0  0  0  0  0
    6.3857   -2.3851   -1.6282 C   0  0  0  0  0  0  0  0  0  0  0  0
    7.0359   -1.6502   -0.5463 N   0  0  0  0  0  0  0  0  0  0  0  0
    7.5749   -2.4763    0.5377 C   0  0  0  0  0  0  0  0  0  0  0  0
    8.9587   -3.0579    0.2164 C   0  0  0  0  0  0  0  0  0  0  0  0
    9.8638   -1.9696   -0.1320 N   0  0  0  0  0  0  0  0  0  0  0  0
    9.3879   -1.2027   -1.2770 C   0  0  0  0  0  0  0  0  0  0  0  0
    8.0049   -0.6284   -0.9458 C   0  0  0  0  0  0  0  0  0  0  0  0
    0.7100   -0.5223   -1.5933 H   0  0  0  0  0  0  0  0  0  0  0  0
   -0.2278    1.7362   -1.4664 H   0  0  0  0  0  0  0  0  0  0  0  0
    1.1148    2.1718   -0.3859 H   0  0  0  0  0  0  0  0  0  0  0  0
    0.1266    0.7769    1.4326 H   0  0  0  0  0  0  0  0  0  0  0  0
   -1.2181    0.3146    0.3770 H   0  0  0  0  0  0  0  0  0  0  0  0
   -3.0905    1.8489   -0.0233 H   0  0  0  0  0  0  0  0  0  0  0  0
   -4.3094    3.9346    0.6314 H   0  0  0  0  0  0  0  0  0  0  0  0
   -0.8734    5.2661    2.8393 H   0  0  0  0  0  0  0  0  0  0  0  0
    0.3594    3.1857    2.1930 H   0  0  0  0  0  0  0  0  0  0  0  0
    4.6651   -0.9097   -0.2871 H   0  0  0  0  0  0  0  0  0  0  0  0
    4.4393   -3.2410   -2.1153 H   0  0  0  0  0  0  0  0  0  0  0  0
    4.9570   -3.5297   -0.4481 H   0  0  0  0  0  0  0  0  0  0  0  0
    6.3474   -1.7269   -2.5108 H   0  0  0  0  0  0  0  0  0  0  0  0
    6.9299   -3.3007   -1.9415 H   0  0  0  0  0  0  0  0  0  0  0  0
    6.8653   -3.2844    0.7748 H   0  0  0  0  0  0  0  0  0  0  0  0
    7.6660   -1.8459    1.4394 H   0  0  0  0  0  0  0  0  0  0  0  0
    8.8606   -3.8156   -0.5962 H   0  0  0  0  0  0  0  0  0  0  0  0
    9.3480   -3.5878    1.1016 H   0  0  0  0  0  0  0  0  0  0  0  0
   10.8059   -2.3187   -0.2934 H   0  0  0  0  0  0  0  0  0  0  0  0
    9.3189   -1.8111   -2.2096 H   0  0  0  0  0  0  0  0  0  0  0  0
   10.0912   -0.3781   -1.4813 H   0  0  0  0  0  0  0  0  0  0  0  0
    7.6028   -0.0626   -1.8008 H   0  0  0  0  0  0  0  0  0  0  0  0
    8.1210    0.0782   -0.1051 H   0  0  0  0  0  0  0  0  0  0  0  0
  1  2  2  0
  2  3  1  0
  2 13  1  0
  3  4  1  0
  3 24  1  0
  4  5  1  0
  4 25  1  0
  4 26  1  0
  5  6  1  0
  5 27  1  0
  5 28  1  0
  6  7  2  0
  6 12  1  0
  7  8  1  0
  7 29  1  0
  8  9  2  0
  8 30  1  0
  9 10  1  0
  9 11  1  0
 11 12  2  0
 11 31  1  0
 12 32  1  0
 13 14  2  0
 13 15  1  0
 15 16  1  0
 15 33  1  0
 16 17  1  0
 16 34  1  0
 16 35  1  0
 17 18  1  0
 17 36  1  0
 17 37  1  0
 18 19  1  0
 18 23  1  0
 19 20  1  0
 19 38  1  0
 19 39  1  0
 20 21  1  0
 20 40  1  0
 20 41  1  0
 21 22  1  0
 21 42  1  0
 22 23  1  0
 22 43  1  0
 22 44  1  0
 23 45  1  0
 23 46  1  0
M  END

