
     RDKit          3D

 86 91  0  0  0  0  0  0  0  0999 V2000
   10.8298    3.1037    3.7822 C   0  0  0  0  0  0  0  0  0  0  0  0
    9.5010    2.9594    4.5252 C   0  0  0  0  0  0  0  0  0  0  0  0
    8.3391    3.0692    3.6591 N   0  0  0  0  0  0  0  0  0  0  0  0
    7.5474    4.1831    3.6184 C   0  0  0  0  0  0  0  0  0  0  0  0
    7.6930    5.1627    4.3223 O   0  0  0  0  0  0  0  0  0  0  0  0
    6.4342    4.0484    2.5800 C   0  0  1  0  0  0  0  0  0  0  0  0
    5.7987    3.1810    2.8526 H   0  0  0  0  0  0  0  0  0  0  0  0
    5.6498    5.2235    2.5054 O   0  0  0  0  0  0  0  0  0  0  0  0
    4.8894    5.0581    1.3424 C   0  0  1  0  0  0  0  0  0  0  0  0
    4.1056    4.2843    1.4919 H   0  0  0  0  0  0  0  0  0  0  0  0
    4.2571    6.3066    0.9817 N   0  0  0  0  0  0  0  0  0  0  0  0
    4.1133    7.4744    1.7251 C   0  0  0  0  0  0  0  0  0  0  0  0
    3.4109    8.3876    1.1061 N   0  0  0  0  0  0  0  0  0  0  0  0
    3.0624    7.8066   -0.0963 C   0  0  0  0  0  0  0  0  0  0  0  0
    2.3088    8.2533   -1.2123 C   0  0  0  0  0  0  0  0  0  0  0  0
    1.7740    9.4974   -1.2350 N   0  0  0  0  0  0  0  0  0  0  0  0
    0.9441   10.0123   -2.3026 C   0  0  0  0  0  0  0  0  0  0  0  0
   -0.5708    9.7459   -2.0915 C   0  0  1  0  0  0  0  0  0  0  0  0
   -1.0787   10.4461   -0.8318 C   0  0  0  0  0  0  0  0  0  0  0  0
   -1.4350   11.8053   -0.8388 C   0  0  0  0  0  0  0  0  0  0  0  0
   -1.8425   12.4461    0.3338 C   0  0  0  0  0  0  0  0  0  0  0  0
   -1.9027   11.7394    1.5393 C   0  0  0  0  0  0  0  0  0  0  0  0
   -1.5529   10.3871    1.5608 C   0  0  0  0  0  0  0  0  0  0  0  0
   -1.1454    9.7486    0.3850 C   0  0  0  0  0  0  0  0  0  0  0  0
   -1.4113   10.0593   -3.3251 C   0  0  0  0  0  0  0  0  0  0  0  0
   -1.0325   11.0032   -4.2930 C   0  0  0  0  0  0  0  0  0  0  0  0
   -1.8477   11.2669   -5.4005 C   0  0  0  0  0  0  0  0  0  0  0  0
   -3.0579   10.5906   -5.5622 C   0  0  0  0  0  0  0  0  0  0  0  0
   -3.4478    9.6453   -4.6071 C   0  0  0  0  0  0  0  0  0  0  0  0
   -2.6322    9.3852   -3.5052 C   0  0  0  0  0  0  0  0  0  0  0  0
    2.1368    7.4249   -2.2501 N   0  0  0  0  0  0  0  0  0  0  0  0
    2.6958    6.1957   -2.2308 C   0  0  0  0  0  0  0  0  0  0  0  0
    2.5135    5.4158   -3.3293 N   0  0  0  0  0  0  0  0  0  0  0  0
    1.6438    5.7333   -4.4369 C   0  0  0  0  0  0  0  0  0  0  0  0
    1.9360    4.7796   -5.6003 C   0  0  0  0  0  0  0  0  0  0  0  0
    1.9184    3.3792   -5.1816 N   0  0  0  0  0  0  0  0  0  0  0  0
    0.5871    2.8044   -4.9626 C   0  0  0  0  0  0  0  0  0  0  0  0
   -0.0914    2.3494   -6.2617 C   0  0  0  0  0  0  0  0  0  0  0  0
    0.7876    1.4170   -6.9572 N   0  0  0  0  0  0  0  0  0  0  0  0
    2.0807    2.0115   -7.2738 C   0  0  0  0  0  0  0  0  0  0  0  0
    2.7479    2.4653   -5.9693 C   0  0  0  0  0  0  0  0  0  0  0  0
    3.4322    5.6631   -1.2271 N   0  0  0  0  0  0  0  0  0  0  0  0
    3.5762    6.5103   -0.1962 C   0  0  0  0  0  0  0  0  0  0  0  0
    5.8621    4.5134    0.2651 C   0  0  2  0  0  0  0  0  0  0  0  0
    6.3178    5.3696   -0.2640 H   0  0  0  0  0  0  0  0  0  0  0  0
    5.2584    3.6117   -0.6147 O   0  0  0  0  0  0  0  0  0  0  0  0
    6.9324    3.7853    1.1283 C   0  0  2  0  0  0  0  0  0  0  0  0
    7.9158    4.2643    0.9867 H   0  0  0  0  0  0  0  0  0  0  0  0
    7.0419    2.4173    0.8438 O   0  0  0  0  0  0  0  0  0  0  0  0
   11.6764    2.9955    4.4794 H   0  0  0  0  0  0  0  0  0  0  0  0
   10.9052    4.0921    3.3026 H   0  0  0  0  0  0  0  0  0  0  0  0
   10.9393    2.3349    2.9992 H   0  0  0  0  0  0  0  0  0  0  0  0
    9.3985    3.7503    5.2818 H   0  0  0  0  0  0  0  0  0  0  0  0
    9.4646    1.9901    5.0529 H   0  0  0  0  0  0  0  0  0  0  0  0
    8.1672    2.3373    2.9739 H   0  0  0  0  0  0  0  0  0  0  0  0
    4.5731    7.5608    2.7085 H   0  0  0  0  0  0  0  0  0  0  0  0
    1.8865   10.0394   -0.3856 H   0  0  0  0  0  0  0  0  0  0  0  0
    1.2645    9.5333   -3.2376 H   0  0  0  0  0  0  0  0  0  0  0  0
    1.1318   11.0941   -2.3874 H   0  0  0  0  0  0  0  0  0  0  0  0
   -0.6560    8.6614   -1.9175 H   0  0  0  0  0  0  0  0  0  0  0  0
   -1.4061   12.3673   -1.7758 H   0  0  0  0  0  0  0  0  0  0  0  0
   -2.1193   13.5034    0.3049 H   0  0  0  0  0  0  0  0  0  0  0  0
   -2.2237   12.2403    2.4562 H   0  0  0  0  0  0  0  0  0  0  0  0
   -1.5972    9.8231    2.4962 H   0  0  0  0  0  0  0  0  0  0  0  0
   -0.8744    8.6895    0.4126 H   0  0  0  0  0  0  0  0  0  0  0  0
   -0.0904   11.5463   -4.1956 H   0  0  0  0  0  0  0  0  0  0  0  0
   -1.5297   12.0062   -6.1405 H   0  0  0  0  0  0  0  0  0  0  0  0
   -3.6938   10.7960   -6.4271 H   0  0  0  0  0  0  0  0  0  0  0  0
   -4.3919    9.1063   -4.7230 H   0  0  0  0  0  0  0  0  0  0  0  0
   -2.9469    8.6457   -2.7631 H   0  0  0  0  0  0  0  0  0  0  0  0
    2.7841    4.4385   -3.2656 H   0  0  0  0  0  0  0  0  0  0  0  0
    1.8124    6.7709   -4.7620 H   0  0  0  0  0  0  0  0  0  0  0  0
    0.5762    5.6798   -4.1432 H   0  0  0  0  0  0  0  0  0  0  0  0
    2.9484    4.9966   -5.9777 H   0  0  0  0  0  0  0  0  0  0  0  0
    1.2330    5.0139   -6.4265 H   0  0  0  0  0  0  0  0  0  0  0  0
   -0.0466    3.5321   -4.4330 H   0  0  0  0  0  0  0  0  0  0  0  0
    0.6971    1.9244   -4.3049 H   0  0  0  0  0  0  0  0  0  0  0  0
   -0.3482    3.2430   -6.8772 H   0  0  0  0  0  0  0  0  0  0  0  0
   -1.0415    1.8445   -6.0204 H   0  0  0  0  0  0  0  0  0  0  0  0
    0.3398    1.0520   -7.7949 H   0  0  0  0  0  0  0  0  0  0  0  0
    2.0019    2.8806   -7.9684 H   0  0  0  0  0  0  0  0  0  0  0  0
    2.7162    1.2593   -7.7703 H   0  0  0  0  0  0  0  0  0  0  0  0
    3.7181    2.9443   -6.1755 H   0  0  0  0  0  0  0  0  0  0  0  0
    2.9424    1.5671   -5.3565 H   0  0  0  0  0  0  0  0  0  0  0  0
    4.5364    4.1207   -1.0615 H   0  0  0  0  0  0  0  0  0  0  0  0
    6.3567    2.2261    0.1772 H   0  0  0  0  0  0  0  0  0  0  0  0
  1  2  1  0
  1 50  1  0
  1 51  1  0
  1 52  1  0
  2  3  1  0
  2 53  1  0
  2 54  1  0
  3  4  1  0
  3 55  1  0
  4  5  2  0
  4  6  1  0
  6  7  1  1
  6  8  1  0
  6 47  1  0
  8  9  1  0
  9 10  1  1
  9 11  1  0
  9 44  1  0
 11 12  1  0
 11 43  1  0
 12 13  2  0
 12 56  1  0
 13 14  1  0
 14 15  1  0
 14 43  2  0
 15 16  1  0
 15 31  2  0
 16 17  1  0
 16 57  1  0
 17 18  1  0
 17 58  1  0
 17 59  1  0
 18 19  1  0
 18 25  1  0
 18 60  1  1
 19 20  2  0
 19 24  1  0
 20 21  1  0
 20 61  1  0
 21 22  2  0
 21 62  1  0
 22 23  1  0
 22 63  1  0
 23 24  2  0
 23 64  1  0
 24 65  1  0
 25 26  2  0
 25 30  1  0
 26 27  1  0
 26 66  1  0
 27 28  2  0
 27 67  1  0
 28 29  1  0
 28 68  1  0
 29 30  2  0
 29 69  1  0
 30 70  1  0
 31 32  1  0
 32 33  1  0
 32 42  2  0
 33 34  1  0
 33 71  1  0
 34 35  1  0
 34 72  1  0
 34 73  1  0
 35 36  1  0
 35 74  1  0
 35 75  1  0
 36 37  1  0
 36 41  1  0
 37 38  1  0
 37 76  1  0
 37 77  1  0
 38 39  1  0
 38 78  1  0
 38 79  1  0
 39 40  1  0
 39 80  1  0
 40 41  1  0
 40 81  1  0
 40 82  1  0
 41 83  1  0
 41 84  1  0
 42 43  1  0
 44 45  1  6
 44 46  1  0
 44 47  1  0
 46 85  1  0
 47 48  1  1
 47 49  1  0
 49 86  1  0
M  END

