
     RDKit          3D

 28 27  0  0  0  0  0  0  0  0999 V2000
    3.2693   -2.4048    1.1856 C   0  0  0  0  0  0  0  0  0  0  0  0
    3.5651   -1.2331    0.6023 C   0  0  0  0  0  0  0  0  0  0  0  0
    3.1823   -0.8698   -0.8074 C   0  0  0  0  0  0  0  0  0  0  0  0
    4.3245   -0.2358    1.4275 C   0  0  0  0  0  0  0  0  0  0  0  0
    4.6884   -0.3996    2.5696 O   0  0  0  0  0  0  0  0  0  0  0  0
    4.5607    0.9021    0.7348 O   0  0  0  0  0  0  0  0  0  0  0  0
    5.2590    1.9527    1.4135 C   0  0  0  0  0  0  0  0  0  0  0  0
    6.7789    1.7381    1.3511 C   0  0  0  0  0  0  0  0  0  0  0  0
    7.5455    2.8110    1.9490 N   0  0  0  0  0  0  0  0  0  0  0  0
    7.7349    4.0404    1.3135 C   0  0  0  0  0  0  0  0  0  0  0  0
    7.3547    4.3712    0.0638 C   0  0  0  0  0  0  0  0  0  0  0  0
    8.5420    5.0563    2.1002 C   0  0  0  0  0  0  0  0  0  0  0  0
    9.2911    4.5181    3.1199 N   0  0  0  0  0  0  0  0  0  0  0  0
    8.5157    6.2478    1.8618 O   0  0  0  0  0  0  0  0  0  0  0  0
    2.7167   -3.1823    0.6516 H   0  0  0  0  0  0  0  0  0  0  0  0
    3.5784   -2.6011    2.2147 H   0  0  0  0  0  0  0  0  0  0  0  0
    2.6359   -1.6929   -1.2898 H   0  0  0  0  0  0  0  0  0  0  0  0
    4.0724   -0.6358   -1.4133 H   0  0  0  0  0  0  0  0  0  0  0  0
    2.5496    0.0320   -0.8270 H   0  0  0  0  0  0  0  0  0  0  0  0
    4.9289    1.9940    2.4627 H   0  0  0  0  0  0  0  0  0  0  0  0
    4.9683    2.8802    0.9030 H   0  0  0  0  0  0  0  0  0  0  0  0
    7.0897    1.6177    0.3011 H   0  0  0  0  0  0  0  0  0  0  0  0
    7.0208    0.7998    1.8737 H   0  0  0  0  0  0  0  0  0  0  0  0
    7.4496    2.8812    2.9580 H   0  0  0  0  0  0  0  0  0  0  0  0
    6.7807    3.7048   -0.5811 H   0  0  0  0  0  0  0  0  0  0  0  0
    7.6452    5.3473   -0.3237 H   0  0  0  0  0  0  0  0  0  0  0  0
    9.5511    3.5391    3.0814 H   0  0  0  0  0  0  0  0  0  0  0  0
    9.9266    5.1552    3.5883 H   0  0  0  0  0  0  0  0  0  0  0  0
  1  2  2  0
  1 15  1  0
  1 16  1  0
  2  3  1  0
  2  4  1  0
  3 17  1  0
  3 18  1  0
  3 19  1  0
  4  5  2  0
  4  6  1  0
  6  7  1  0
  7  8  1  0
  7 20  1  0
  7 21  1  0
  8  9  1  0
  8 22  1  0
  8 23  1  0
  9 10  1  0
  9 24  1  0
 10 11  2  0
 10 12  1  0
 11 25  1  0
 11 26  1  0
 12 13  1  0
 12 14  2  0
 13 27  1  0
 13 28  1  0
M  END

