
     RDKit          3D

 36 36  0  0  0  0  0  0  0  0999 V2000
    2.1159    2.3914   -3.3045 C   0  0  0  0  0  0  0  0  0  0  0  0
    2.2128    1.8975   -1.8666 C   0  0  0  0  0  0  0  0  0  0  0  0
    3.2798    0.9807   -1.6634 O   0  0  0  0  0  0  0  0  0  0  0  0
    4.5660    1.4072   -1.5015 C   0  0  0  0  0  0  0  0  0  0  0  0
    4.9353    2.7593   -1.4355 C   0  0  0  0  0  0  0  0  0  0  0  0
    6.2765    3.1147   -1.2598 C   0  0  0  0  0  0  0  0  0  0  0  0
    7.2570    2.1292   -1.1623 C   0  0  0  0  0  0  0  0  0  0  0  0
    6.8828    0.7833   -1.2353 C   0  0  0  0  0  0  0  0  0  0  0  0
    5.5478    0.3902   -1.3944 C   0  0  0  0  0  0  0  0  0  0  0  0
    5.1609   -1.0710   -1.4844 C   0  0  0  0  0  0  0  0  0  0  0  0
    4.8975   -1.8220   -0.1501 C   0  0  1  0  0  0  0  0  0  0  0  0
    3.9067   -1.0781    0.7585 C   0  0  0  0  0  0  0  0  0  0  0  0
    4.4315   -3.1734   -0.5191 N   0  0  0  0  0  0  0  0  0  0  0  0
    6.1848   -2.1076    0.6548 C   0  0  0  0  0  0  0  0  0  0  0  0
    6.1988   -2.2880    1.8488 O   0  0  0  0  0  0  0  0  0  0  0  0
    7.2849   -2.2244   -0.1078 O   0  0  0  0  0  0  0  0  0  0  0  0
    8.4781   -2.6243    0.5667 C   0  0  0  0  0  0  0  0  0  0  0  0
    1.2308    3.0372   -3.4224 H   0  0  0  0  0  0  0  0  0  0  0  0
    2.0164    1.5406   -3.9963 H   0  0  0  0  0  0  0  0  0  0  0  0
    3.0030    2.9704   -3.6019 H   0  0  0  0  0  0  0  0  0  0  0  0
    1.3060    1.3323   -1.6011 H   0  0  0  0  0  0  0  0  0  0  0  0
    2.2856    2.7389   -1.1550 H   0  0  0  0  0  0  0  0  0  0  0  0
    4.1850    3.5450   -1.5221 H   0  0  0  0  0  0  0  0  0  0  0  0
    6.5470    4.1727   -1.2088 H   0  0  0  0  0  0  0  0  0  0  0  0
    8.3077    2.4015   -1.0376 H   0  0  0  0  0  0  0  0  0  0  0  0
    7.6442    0.0040   -1.1710 H   0  0  0  0  0  0  0  0  0  0  0  0
    5.9341   -1.6317   -2.0257 H   0  0  0  0  0  0  0  0  0  0  0  0
    4.2319   -1.1482   -2.0691 H   0  0  0  0  0  0  0  0  0  0  0  0
    2.9505   -0.9439    0.2320 H   0  0  0  0  0  0  0  0  0  0  0  0
    4.2794   -0.0835    1.0477 H   0  0  0  0  0  0  0  0  0  0  0  0
    3.7408   -1.6529    1.6809 H   0  0  0  0  0  0  0  0  0  0  0  0
    3.5986   -3.0935   -1.1046 H   0  0  0  0  0  0  0  0  0  0  0  0
    4.1449   -3.6766    0.3222 H   0  0  0  0  0  0  0  0  0  0  0  0
    9.2628   -2.6678   -0.1989 H   0  0  0  0  0  0  0  0  0  0  0  0
    8.3470   -3.6118    1.0343 H   0  0  0  0  0  0  0  0  0  0  0  0
    8.7466   -1.9011    1.3514 H   0  0  0  0  0  0  0  0  0  0  0  0
  1  2  1  0
  1 18  1  0
  1 19  1  0
  1 20  1  0
  2  3  1  0
  2 21  1  0
  2 22  1  0
  3  4  1  0
  4  5  2  0
  4  9  1  0
  5  6  1  0
  5 23  1  0
  6  7  2  0
  6 24  1  0
  7  8  1  0
  7 25  1  0
  8  9  2  0
  8 26  1  0
  9 10  1  0
 10 11  1  0
 10 27  1  0
 10 28  1  0
 11 12  1  0
 11 13  1  0
 11 14  1  1
 12 29  1  0
 12 30  1  0
 12 31  1  0
 13 32  1  0
 13 33  1  0
 14 15  2  0
 14 16  1  0
 16 17  1  0
 17 34  1  0
 17 35  1  0
 17 36  1  0
M  END

