
     RDKit          3D

 82 89  0  0  0  0  0  0  0  0999 V2000
   -8.1183   -2.2365    0.9979 C   0  0  0  0  0  0  0  0  0  0  0  0
   -7.8013   -0.9116    0.2546 C   0  0  2  0  0  0  0  0  0  0  0  0
   -9.1031   -0.3517   -0.3783 C   0  0  0  0  0  0  0  0  0  0  0  0
   -6.7848   -1.1943   -0.8606 C   0  0  0  0  0  0  0  0  0  0  0  0
   -7.1134   -2.1051   -1.8766 C   0  0  0  0  0  0  0  0  0  0  0  0
   -6.2458   -2.4133   -2.9239 C   0  0  0  0  0  0  0  0  0  0  0  0
   -4.9975   -1.7907   -2.9666 C   0  0  0  0  0  0  0  0  0  0  0  0
   -4.6375   -0.8823   -1.9756 C   0  0  0  0  0  0  0  0  0  0  0  0
   -5.5167   -0.5717   -0.9144 C   0  0  0  0  0  0  0  0  0  0  0  0
   -5.1256    0.3497    0.0736 N   0  0  0  0  0  0  0  0  0  0  0  0
   -3.8304    0.9560   -0.0118 C   0  0  0  0  0  0  0  0  0  0  0  0
   -2.7269    0.3487    0.5999 C   0  0  0  0  0  0  0  0  0  0  0  0
   -1.4614    0.9319    0.5074 C   0  0  0  0  0  0  0  0  0  0  0  0
   -1.2823    2.1395   -0.1888 C   0  0  0  0  0  0  0  0  0  0  0  0
    0.0333    2.8662   -0.2598 C   0  0  0  0  0  0  0  0  0  0  0  0
    0.0473    4.0810   -0.3607 O   0  0  0  0  0  0  0  0  0  0  0  0
    1.3315    2.1073   -0.2107 C   0  0  0  0  0  0  0  0  0  0  0  0
    1.4789    0.7964   -0.6955 C   0  0  0  0  0  0  0  0  0  0  0  0
    2.7305    0.1770   -0.6934 C   0  0  0  0  0  0  0  0  0  0  0  0
    3.8517    0.8529   -0.1966 C   0  0  0  0  0  0  0  0  0  0  0  0
    5.1329    0.2119   -0.1864 N   0  0  0  0  0  0  0  0  0  0  0  0
    5.9756    0.3473   -1.3050 C   0  0  0  0  0  0  0  0  0  0  0  0
    5.5557    1.1139   -2.4145 C   0  0  0  0  0  0  0  0  0  0  0  0
    6.3682    1.2641   -3.5345 C   0  0  0  0  0  0  0  0  0  0  0  0
    7.6217    0.6519   -3.5758 C   0  0  0  0  0  0  0  0  0  0  0  0
    8.0352   -0.1045   -2.4798 C   0  0  0  0  0  0  0  0  0  0  0  0
    7.2433   -0.2774   -1.3339 C   0  0  0  0  0  0  0  0  0  0  0  0
    7.7766   -1.1272   -0.1719 C   0  0  1  0  0  0  0  0  0  0  0  0
    8.0524   -2.5665   -0.6827 C   0  0  0  0  0  0  0  0  0  0  0  0
    9.0994   -0.5023    0.3461 C   0  0  0  0  0  0  0  0  0  0  0  0
    6.7677   -1.1911    0.9835 C   0  0  0  0  0  0  0  0  0  0  0  0
    7.0875   -1.9243    2.1367 C   0  0  0  0  0  0  0  0  0  0  0  0
    6.2256   -2.0294    3.2278 C   0  0  0  0  0  0  0  0  0  0  0  0
    4.9922   -1.3786    3.1739 C   0  0  0  0  0  0  0  0  0  0  0  0
    4.6412   -0.6428    2.0459 C   0  0  0  0  0  0  0  0  0  0  0  0
    5.5147   -0.5379    0.9407 C   0  0  0  0  0  0  0  0  0  0  0  0
    3.7128    2.1641    0.2823 C   0  0  0  0  0  0  0  0  0  0  0  0
    2.4678    2.7878    0.2623 C   0  0  0  0  0  0  0  0  0  0  0  0
   -2.4011    2.7564   -0.7767 C   0  0  0  0  0  0  0  0  0  0  0  0
   -3.6598    2.1654   -0.7017 C   0  0  0  0  0  0  0  0  0  0  0  0
   -5.9729    0.6909    1.1439 C   0  0  0  0  0  0  0  0  0  0  0  0
   -5.5422    1.6235    2.1134 C   0  0  0  0  0  0  0  0  0  0  0  0
   -6.3590    1.9793    3.1825 C   0  0  0  0  0  0  0  0  0  0  0  0
   -7.6278    1.4124    3.3117 C   0  0  0  0  0  0  0  0  0  0  0  0
   -8.0518    0.4919    2.3539 C   0  0  0  0  0  0  0  0  0  0  0  0
   -7.2559    0.1096    1.2629 C   0  0  0  0  0  0  0  0  0  0  0  0
   -7.2089   -2.6539    1.4563 H   0  0  0  0  0  0  0  0  0  0  0  0
   -8.5290   -2.9909    0.3097 H   0  0  0  0  0  0  0  0  0  0  0  0
   -8.8592   -2.0778    1.7962 H   0  0  0  0  0  0  0  0  0  0  0  0
   -9.8652   -0.1515    0.3901 H   0  0  0  0  0  0  0  0  0  0  0  0
   -8.9035    0.5898   -0.9123 H   0  0  0  0  0  0  0  0  0  0  0  0
   -9.5356   -1.0648   -1.0964 H   0  0  0  0  0  0  0  0  0  0  0  0
   -8.0895   -2.5941   -1.8478 H   0  0  0  0  0  0  0  0  0  0  0  0
   -6.5430   -3.1285   -3.6940 H   0  0  0  0  0  0  0  0  0  0  0  0
   -4.2943   -2.0087   -3.7745 H   0  0  0  0  0  0  0  0  0  0  0  0
   -3.6604   -0.4040   -2.0240 H   0  0  0  0  0  0  0  0  0  0  0  0
   -2.8697   -0.5830    1.1512 H   0  0  0  0  0  0  0  0  0  0  0  0
   -0.6160    0.4540    1.0054 H   0  0  0  0  0  0  0  0  0  0  0  0
    0.6197    0.2615   -1.1036 H   0  0  0  0  0  0  0  0  0  0  0  0
    2.8489   -0.8367   -1.0816 H   0  0  0  0  0  0  0  0  0  0  0  0
    4.5808    1.5989   -2.3982 H   0  0  0  0  0  0  0  0  0  0  0  0
    6.0139    1.8646   -4.3762 H   0  0  0  0  0  0  0  0  0  0  0  0
    8.2708    0.7603   -4.4475 H   0  0  0  0  0  0  0  0  0  0  0  0
    9.0169   -0.5816   -2.5165 H   0  0  0  0  0  0  0  0  0  0  0  0
    7.1275   -3.0320   -1.0560 H   0  0  0  0  0  0  0  0  0  0  0  0
    8.4537   -3.2039    0.1199 H   0  0  0  0  0  0  0  0  0  0  0  0
    8.7865   -2.5641   -1.5027 H   0  0  0  0  0  0  0  0  0  0  0  0
    9.5234   -1.0946    1.1711 H   0  0  0  0  0  0  0  0  0  0  0  0
    9.8566   -0.4552   -0.4513 H   0  0  0  0  0  0  0  0  0  0  0  0
    8.9296    0.5209    0.7144 H   0  0  0  0  0  0  0  0  0  0  0  0
    8.0519   -2.4348    2.1837 H   0  0  0  0  0  0  0  0  0  0  0  0
    6.5156   -2.6108    4.1057 H   0  0  0  0  0  0  0  0  0  0  0  0
    4.2938   -1.4395    4.0125 H   0  0  0  0  0  0  0  0  0  0  0  0
    3.6757   -0.1398    2.0198 H   0  0  0  0  0  0  0  0  0  0  0  0
    4.5927    2.6875    0.6622 H   0  0  0  0  0  0  0  0  0  0  0  0
    2.3518    3.8163    0.6093 H   0  0  0  0  0  0  0  0  0  0  0  0
   -2.2603    3.7096   -1.2899 H   0  0  0  0  0  0  0  0  0  0  0  0
   -4.5261    2.6369   -1.1705 H   0  0  0  0  0  0  0  0  0  0  0  0
   -4.5553    2.0757    2.0270 H   0  0  0  0  0  0  0  0  0  0  0  0
   -5.9962    2.7045    3.9153 H   0  0  0  0  0  0  0  0  0  0  0  0
   -8.2806    1.6814    4.1450 H   0  0  0  0  0  0  0  0  0  0  0  0
   -9.0455    0.0509    2.4591 H   0  0  0  0  0  0  0  0  0  0  0  0
  2  1  1  1
  1 47  1  0
  1 48  1  0
  1 49  1  0
  2  3  1  0
  2  4  1  0
  2 46  1  0
  3 50  1  0
  3 51  1  0
  3 52  1  0
  4  5  1  0
  4  9  2  0
  5  6  2  0
  5 53  1  0
  6  7  1  0
  6 54  1  0
  7  8  2  0
  7 55  1  0
  8  9  1  0
  8 56  1  0
  9 10  1  0
 10 11  1  0
 10 41  1  0
 11 12  2  0
 11 40  1  0
 12 13  1  0
 12 57  1  0
 13 14  2  0
 13 58  1  0
 14 15  1  0
 14 39  1  0
 15 16  2  0
 15 17  1  0
 17 18  2  0
 17 38  1  0
 18 19  1  0
 18 59  1  0
 19 20  2  0
 19 60  1  0
 20 21  1  0
 20 37  1  0
 21 22  1  0
 21 36  1  0
 22 23  2  0
 22 27  1  0
 23 24  1  0
 23 61  1  0
 24 25  2  0
 24 62  1  0
 25 26  1  0
 25 63  1  0
 26 27  2  0
 26 64  1  0
 27 28  1  0
 28 29  1  6
 28 30  1  0
 28 31  1  0
 29 65  1  0
 29 66  1  0
 29 67  1  0
 30 68  1  0
 30 69  1  0
 30 70  1  0
 31 32  2  0
 31 36  1  0
 32 33  1  0
 32 71  1  0
 33 34  2  0
 33 72  1  0
 34 35  1  0
 34 73  1  0
 35 36  2  0
 35 74  1  0
 37 38  2  0
 37 75  1  0
 38 76  1  0
 39 40  2  0
 39 77  1  0
 40 78  1  0
 41 42  1  0
 41 46  2  0
 42 43  2  0
 42 79  1  0
 43 44  1  0
 43 80  1  0
 44 45  2  0
 44 81  1  0
 45 46  1  0
 45 82  1  0
M  END

