
     RDKit          3D

 50 50  0  0  0  0  0  0  0  0999 V2000
    1.0680    0.2123    0.8891 C   0  0  0  0  0  0  0  0  0  0  0  0
    2.4985    0.1680    0.4114 C   0  0  0  0  0  0  0  0  0  0  0  0
    3.3021    1.3154    0.4135 C   0  0  0  0  0  0  0  0  0  0  0  0
    4.6398    1.2774   -0.0007 C   0  0  0  0  0  0  0  0  0  0  0  0
    5.4849    2.5390   -0.0346 C   0  0  0  0  0  0  0  0  0  0  0  0
    5.1627    3.4394    1.0609 N   0  0  0  0  0  0  0  0  0  0  0  0
    5.8130    4.7623    1.1225 C   0  0  1  0  0  0  0  0  0  0  0  0
    5.3535    5.6191   -0.0705 C   0  0  0  0  0  0  0  0  0  0  0  0
    5.3273    5.4171    2.4261 C   0  0  0  0  0  0  0  0  0  0  0  0
    7.3561    4.6750    1.1391 C   0  0  0  0  0  0  0  0  0  0  0  0
    5.1792    0.0497   -0.4037 C   0  0  0  0  0  0  0  0  0  0  0  0
    4.4127   -1.1236   -0.4275 C   0  0  0  0  0  0  0  0  0  0  0  0
    5.0120   -2.4469   -0.8347 C   0  0  0  0  0  0  0  0  0  0  0  0
    3.0661   -1.0424   -0.0290 C   0  0  0  0  0  0  0  0  0  0  0  0
    2.3055   -2.1961    0.0059 O   0  0  0  0  0  0  0  0  0  0  0  0
    1.5724   -2.5071   -1.1676 C   0  0  0  0  0  0  0  0  0  0  0  0
    0.8231   -3.8022   -0.9057 C   0  0  0  0  0  0  0  0  0  0  0  0
    0.0828   -4.1191   -2.0588 O   0  0  0  0  0  0  0  0  0  0  0  0
   -0.6815   -5.3043   -1.9668 C   0  0  0  0  0  0  0  0  0  0  0  0
   -1.3030   -5.5430   -3.3322 C   0  0  0  0  0  0  0  0  0  0  0  0
   -0.3200   -5.6786   -4.3291 O   0  0  0  0  0  0  0  0  0  0  0  0
    0.8589    1.1543    1.4164 H   0  0  0  0  0  0  0  0  0  0  0  0
    0.8501   -0.6272    1.5672 H   0  0  0  0  0  0  0  0  0  0  0  0
    0.3525    0.1383    0.0518 H   0  0  0  0  0  0  0  0  0  0  0  0
    2.8916    2.2657    0.7624 H   0  0  0  0  0  0  0  0  0  0  0  0
    5.2862    3.0664   -0.9847 H   0  0  0  0  0  0  0  0  0  0  0  0
    6.5542    2.2393   -0.0788 H   0  0  0  0  0  0  0  0  0  0  0  0
    5.2987    2.9532    1.9471 H   0  0  0  0  0  0  0  0  0  0  0  0
    4.2542    5.6591   -0.1125 H   0  0  0  0  0  0  0  0  0  0  0  0
    5.7188    5.2219   -1.0304 H   0  0  0  0  0  0  0  0  0  0  0  0
    5.7378    6.6469    0.0234 H   0  0  0  0  0  0  0  0  0  0  0  0
    4.2289    5.4867    2.4350 H   0  0  0  0  0  0  0  0  0  0  0  0
    5.7459    6.4287    2.5426 H   0  0  0  0  0  0  0  0  0  0  0  0
    5.6378    4.8248    3.3039 H   0  0  0  0  0  0  0  0  0  0  0  0
    7.7498    4.2345    0.2095 H   0  0  0  0  0  0  0  0  0  0  0  0
    7.7038    4.0542    1.9819 H   0  0  0  0  0  0  0  0  0  0  0  0
    7.8101    5.6733    1.2476 H   0  0  0  0  0  0  0  0  0  0  0  0
    6.2317   -0.0029   -0.7006 H   0  0  0  0  0  0  0  0  0  0  0  0
    6.1086   -2.3843   -0.8876 H   0  0  0  0  0  0  0  0  0  0  0  0
    4.6534   -2.7731   -1.8263 H   0  0  0  0  0  0  0  0  0  0  0  0
    4.7394   -3.2412   -0.1228 H   0  0  0  0  0  0  0  0  0  0  0  0
    2.2428   -2.6331   -2.0377 H   0  0  0  0  0  0  0  0  0  0  0  0
    0.8531   -1.7061   -1.4174 H   0  0  0  0  0  0  0  0  0  0  0  0
    0.1601   -3.6730   -0.0265 H   0  0  0  0  0  0  0  0  0  0  0  0
    1.5440   -4.6065   -0.6550 H   0  0  0  0  0  0  0  0  0  0  0  0
   -1.4659   -5.2119   -1.1873 H   0  0  0  0  0  0  0  0  0  0  0  0
   -0.0299   -6.1595   -1.6948 H   0  0  0  0  0  0  0  0  0  0  0  0
   -2.0052   -4.7122   -3.5536 H   0  0  0  0  0  0  0  0  0  0  0  0
   -1.8914   -6.4749   -3.3097 H   0  0  0  0  0  0  0  0  0  0  0  0
    0.2702   -4.9179   -4.2244 H   0  0  0  0  0  0  0  0  0  0  0  0
  1  2  1  0
  1 22  1  0
  1 23  1  0
  1 24  1  0
  2  3  2  0
  2 14  1  0
  3  4  1  0
  3 25  1  0
  4  5  1  0
  4 11  2  0
  5  6  1  0
  5 26  1  0
  5 27  1  0
  7  6  1  6
  6 28  1  0
  7  8  1  0
  7  9  1  0
  7 10  1  0
  8 29  1  0
  8 30  1  0
  8 31  1  0
  9 32  1  0
  9 33  1  0
  9 34  1  0
 10 35  1  0
 10 36  1  0
 10 37  1  0
 11 12  1  0
 11 38  1  0
 12 13  1  0
 12 14  2  0
 13 39  1  0
 13 40  1  0
 13 41  1  0
 14 15  1  0
 15 16  1  0
 16 17  1  0
 16 42  1  0
 16 43  1  0
 17 18  1  0
 17 44  1  0
 17 45  1  0
 18 19  1  0
 19 20  1  0
 19 46  1  0
 19 47  1  0
 20 21  1  0
 20 48  1  0
 20 49  1  0
 21 50  1  0
M  END

