
     RDKit          3D

 75 79  0  0  0  0  0  0  0  0999 V2000
    2.9830   -0.2089    1.4986 N   0  0  0  0  0  0  0  0  0  0  0  0
    3.8019   -0.0819    0.4086 C   0  0  0  0  0  0  0  0  0  0  0  0
    4.4886    0.9128    0.2323 O   0  0  0  0  0  0  0  0  0  0  0  0
    3.8174   -1.2402   -0.5523 C   0  0  0  0  0  0  0  0  0  0  0  0
    4.4110   -1.0032   -1.8036 C   0  0  0  0  0  0  0  0  0  0  0  0
    4.4973   -1.9986   -2.7806 C   0  0  0  0  0  0  0  0  0  0  0  0
    5.3131   -1.6233   -4.3388 S   0  0  1  0  0  0  0  0  0  0  0  0
    6.4502   -2.5552   -4.4591 O   0  0  0  0  0  0  0  0  0  0  0  0
    4.3070   -1.5555   -5.4066 O   0  0  0  0  0  0  0  0  0  0  0  0
    5.9084   -0.0872   -4.1702 N   0  0  0  0  0  0  0  0  0  0  0  0
    7.2743    0.2095   -3.7402 C   0  0  0  0  0  0  0  0  0  0  0  0
    8.1891    0.6519   -4.8666 C   0  0  0  0  0  0  0  0  0  0  0  0
    8.8333    1.8946   -4.8182 C   0  0  0  0  0  0  0  0  0  0  0  0
    9.6877    2.3075   -5.8453 C   0  0  0  0  0  0  0  0  0  0  0  0
    9.8948    1.4639   -6.9381 C   0  0  0  0  0  0  0  0  0  0  0  0
   10.9576    1.9685   -8.2329 Cl  0  0  0  0  0  0  0  0  0  0  0  0
    9.2601    0.2186   -7.0103 C   0  0  0  0  0  0  0  0  0  0  0  0
    8.4134   -0.1801   -5.9765 C   0  0  0  0  0  0  0  0  0  0  0  0
    3.9608   -3.2695   -2.4965 C   0  0  0  0  0  0  0  0  0  0  0  0
    3.3764   -3.5180   -1.2160 C   0  0  0  0  0  0  0  0  0  0  0  0
    3.3100   -2.5113   -0.2505 C   0  0  0  0  0  0  0  0  0  0  0  0
    2.9405   -4.8184   -1.1273 N   0  0  0  0  0  0  0  0  0  0  0  0
    3.2207   -5.3534   -2.2977 C   0  0  0  0  0  0  0  0  0  0  0  0
    2.9254   -6.6237   -2.6652 N   0  0  0  0  0  0  0  0  0  0  0  0
    2.3357   -7.5545   -1.7137 C   0  0  0  0  0  0  0  0  0  0  0  0
    3.3194   -8.1661   -0.7260 C   0  0  0  0  0  0  0  0  0  0  0  0
    3.4571   -7.6216    0.5619 C   0  0  0  0  0  0  0  0  0  0  0  0
    4.3507   -8.1575    1.4912 C   0  0  0  0  0  0  0  0  0  0  0  0
    5.1362   -9.2610    1.1484 C   0  0  0  0  0  0  0  0  0  0  0  0
    5.0277   -9.8226   -0.1253 C   0  0  0  0  0  0  0  0  0  0  0  0
    4.1299   -9.2693   -1.0414 C   0  0  0  0  0  0  0  0  0  0  0  0
    4.0296  -10.0182   -2.6387 Cl  0  0  0  0  0  0  0  0  0  0  0  0
    3.8404   -4.4708   -3.1825 N   0  0  0  0  0  0  0  0  0  0  0  0
    4.0997   -4.7730   -4.5888 C   0  0  0  0  0  0  0  0  0  0  0  0
    5.4228   -5.5393   -4.9298 C   0  0  1  0  0  0  0  0  0  0  0  0
    6.0061   -4.8684   -5.5799 H   0  0  0  0  0  0  0  0  0  0  0  0
    6.3008   -5.8168   -3.6987 C   0  0  0  0  0  0  0  0  0  0  0  0
    7.6397   -6.5239   -3.9628 C   0  0  0  0  0  0  0  0  0  0  0  0
    7.5209   -8.0249   -4.2689 C   0  0  0  0  0  0  0  0  0  0  0  0
    7.1296   -8.4133   -5.7124 C   0  0  0  0  0  0  0  0  0  0  0  0
    6.2555   -7.4262   -6.5098 C   0  0  0  0  0  0  0  0  0  0  0  0
    5.0654   -6.7729   -5.7904 C   0  0  1  0  0  0  0  0  0  0  0  0
    4.3876   -6.4054   -6.5802 H   0  0  0  0  0  0  0  0  0  0  0  0
    4.2723   -7.7206   -5.0650 O   0  0  0  0  0  0  0  0  0  0  0  0
    2.9074    0.5990    2.1054 H   0  0  0  0  0  0  0  0  0  0  0  0
    2.2414   -0.8948    1.5293 H   0  0  0  0  0  0  0  0  0  0  0  0
    4.8174   -0.0111   -1.9915 H   0  0  0  0  0  0  0  0  0  0  0  0
    5.4127    0.5802   -4.7560 H   0  0  0  0  0  0  0  0  0  0  0  0
    7.6660   -0.7084   -3.2766 H   0  0  0  0  0  0  0  0  0  0  0  0
    7.2454    0.9799   -2.9523 H   0  0  0  0  0  0  0  0  0  0  0  0
    8.6700    2.5574   -3.9633 H   0  0  0  0  0  0  0  0  0  0  0  0
   10.1868    3.2769   -5.8032 H   0  0  0  0  0  0  0  0  0  0  0  0
    9.4350   -0.4295   -7.8707 H   0  0  0  0  0  0  0  0  0  0  0  0
    7.9177   -1.1530   -6.0239 H   0  0  0  0  0  0  0  0  0  0  0  0
    2.8822   -2.7543    0.7240 H   0  0  0  0  0  0  0  0  0  0  0  0
    3.3134   -6.9996   -3.5348 H   0  0  0  0  0  0  0  0  0  0  0  0
    1.8497   -8.3509   -2.2944 H   0  0  0  0  0  0  0  0  0  0  0  0
    1.5587   -7.0208   -1.1493 H   0  0  0  0  0  0  0  0  0  0  0  0
    2.8588   -6.7438    0.8128 H   0  0  0  0  0  0  0  0  0  0  0  0
    4.4356   -7.7101    2.4843 H   0  0  0  0  0  0  0  0  0  0  0  0
    5.8371   -9.6893    1.8691 H   0  0  0  0  0  0  0  0  0  0  0  0
    5.6299  -10.6854   -0.4144 H   0  0  0  0  0  0  0  0  0  0  0  0
    4.0569   -3.8272   -5.1393 H   0  0  0  0  0  0  0  0  0  0  0  0
    3.2346   -5.3592   -4.9352 H   0  0  0  0  0  0  0  0  0  0  0  0
    5.7410   -6.4079   -2.9531 H   0  0  0  0  0  0  0  0  0  0  0  0
    6.5073   -4.8443   -3.2285 H   0  0  0  0  0  0  0  0  0  0  0  0
    8.2549   -6.4101   -3.0547 H   0  0  0  0  0  0  0  0  0  0  0  0
    8.1961   -6.0050   -4.7641 H   0  0  0  0  0  0  0  0  0  0  0  0
    6.7964   -8.4578   -3.5543 H   0  0  0  0  0  0  0  0  0  0  0  0
    8.4760   -8.5227   -4.0322 H   0  0  0  0  0  0  0  0  0  0  0  0
    6.6357   -9.4004   -5.6885 H   0  0  0  0  0  0  0  0  0  0  0  0
    8.0458   -8.5717   -6.3057 H   0  0  0  0  0  0  0  0  0  0  0  0
    5.8728   -7.9624   -7.3940 H   0  0  0  0  0  0  0  0  0  0  0  0
    6.8810   -6.6081   -6.9028 H   0  0  0  0  0  0  0  0  0  0  0  0
    4.8451   -8.3093   -4.5527 H   0  0  0  0  0  0  0  0  0  0  0  0
  1  2  1  0
  1 45  1  0
  1 46  1  0
  2  3  2  0
  2  4  1  0
  4  5  2  0
  4 21  1  0
  5  6  1  0
  5 47  1  0
  6  7  1  0
  6 19  2  0
  7  8  2  0
  7  9  2  0
  7 10  1  1
 10 11  1  0
 10 48  1  0
 11 12  1  0
 11 49  1  0
 11 50  1  0
 12 13  2  0
 12 18  1  0
 13 14  1  0
 13 51  1  0
 14 15  2  0
 14 52  1  0
 15 16  1  0
 15 17  1  0
 17 18  2  0
 17 53  1  0
 18 54  1  0
 19 20  1  0
 19 33  1  0
 20 21  2  0
 20 22  1  0
 21 55  1  0
 22 23  2  0
 23 24  1  0
 23 33  1  0
 24 25  1  0
 24 56  1  0
 25 26  1  0
 25 57  1  0
 25 58  1  0
 26 27  2  0
 26 31  1  0
 27 28  1  0
 27 59  1  0
 28 29  2  0
 28 60  1  0
 29 30  1  0
 29 61  1  0
 30 31  2  0
 30 62  1  0
 31 32  1  0
 33 34  1  0
 34 35  1  0
 34 63  1  0
 34 64  1  0
 35 36  1  6
 35 37  1  0
 35 42  1  0
 37 38  1  0
 37 65  1  0
 37 66  1  0
 38 39  1  0
 38 67  1  0
 38 68  1  0
 39 40  1  0
 39 69  1  0
 39 70  1  0
 40 41  1  0
 40 71  1  0
 40 72  1  0
 41 42  1  0
 41 73  1  0
 41 74  1  0
 42 43  1  6
 42 44  1  0
 44 75  1  0
M  END

