
     RDKit          3D

 40 42  0  0  0  0  0  0  0  0999 V2000
    8.1070    1.2351   -0.4702 N   0  0  0  0  0  0  0  0  0  0  0  0
    7.0248    0.8497   -0.2827 C   0  0  0  0  0  0  0  0  0  0  0  0
    5.7359    0.3073   -0.0466 C   0  0  0  0  0  0  0  0  0  0  0  0
    4.4925    0.9825    0.0136 C   0  0  0  0  0  0  0  0  0  0  0  0
    4.1631    2.4058   -0.0986 C   0  0  0  0  0  0  0  0  0  0  0  0
    2.8717    2.8171   -0.4876 C   0  0  0  0  0  0  0  0  0  0  0  0
    2.5413    4.1673   -0.5786 C   0  0  0  0  0  0  0  0  0  0  0  0
    3.5069    5.1370   -0.2951 C   0  0  0  0  0  0  0  0  0  0  0  0
    3.1623    6.4577   -0.4812 O   0  0  0  0  0  0  0  0  0  0  0  0
    3.3581    7.4077    0.4759 C   0  0  0  0  0  0  0  0  0  0  0  0
    3.3847    8.7393    0.0286 C   0  0  0  0  0  0  0  0  0  0  0  0
    3.5313    9.7765    0.9419 C   0  0  0  0  0  0  0  0  0  0  0  0
    3.6531    9.4730    2.3012 C   0  0  0  0  0  0  0  0  0  0  0  0
    3.8122   10.5682    3.2717 N   0  0  0  0  0  0  0  0  0  0  0  0
    3.8252   11.7101    2.8383 O   0  0  0  0  0  0  0  0  0  0  0  0
    3.9209   10.2680    4.4509 O   0  0  0  0  0  0  0  0  0  0  0  0
    3.6236    8.1550    2.7595 C   0  0  0  0  0  0  0  0  0  0  0  0
    3.4740    7.1149    1.8448 C   0  0  0  0  0  0  0  0  0  0  0  0
    4.8021    4.7552    0.0739 C   0  0  0  0  0  0  0  0  0  0  0  0
    5.1209    3.4031    0.1770 C   0  0  0  0  0  0  0  0  0  0  0  0
    3.5492    0.0251    0.1853 N   0  0  0  0  0  0  0  0  0  0  0  0
    2.5508    0.1551    0.3160 H   0  0  0  0  0  0  0  0  0  0  0  0
    4.1046   -1.2341    0.2673 C   0  0  0  0  0  0  0  0  0  0  0  0
    3.2161   -2.3692    0.5608 C   0  0  0  0  0  0  0  0  0  0  0  0
    3.8416   -3.5690    0.7807 N   0  0  0  0  0  0  0  0  0  0  0  0
    2.0000   -2.2231    0.5901 O   0  0  0  0  0  0  0  0  0  0  0  0
    5.4816   -1.0958    0.1040 C   0  0  0  0  0  0  0  0  0  0  0  0
    6.4261   -2.1218    0.1176 N   0  0  0  0  0  0  0  0  0  0  0  0
    2.1124    2.0757   -0.7466 H   0  0  0  0  0  0  0  0  0  0  0  0
    1.5436    4.4855   -0.8859 H   0  0  0  0  0  0  0  0  0  0  0  0
    3.2877    8.9343   -1.0407 H   0  0  0  0  0  0  0  0  0  0  0  0
    3.5578   10.8185    0.6243 H   0  0  0  0  0  0  0  0  0  0  0  0
    3.7120    7.9621    3.8284 H   0  0  0  0  0  0  0  0  0  0  0  0
    3.4395    6.0820    2.1928 H   0  0  0  0  0  0  0  0  0  0  0  0
    5.5591    5.5148    0.2781 H   0  0  0  0  0  0  0  0  0  0  0  0
    6.1316    3.1231    0.4759 H   0  0  0  0  0  0  0  0  0  0  0  0
    4.8205   -3.5740    1.0535 H   0  0  0  0  0  0  0  0  0  0  0  0
    3.2527   -4.3210    1.1220 H   0  0  0  0  0  0  0  0  0  0  0  0
    6.2263   -2.8703   -0.5435 H   0  0  0  0  0  0  0  0  0  0  0  0
    7.3820   -1.7953   -0.0034 H   0  0  0  0  0  0  0  0  0  0  0  0
  1  2  3  0
  2  3  1  0
  3  4  2  0
  3 27  1  0
  4  5  1  0
  4 21  1  0
  5  6  2  0
  5 20  1  0
  6  7  1  0
  6 29  1  0
  7  8  2  0
  7 30  1  0
  8  9  1  0
  8 19  1  0
  9 10  1  0
 10 11  2  0
 10 18  1  0
 11 12  1  0
 11 31  1  0
 12 13  2  0
 12 32  1  0
 13 14  1  0
 13 17  1  0
 14 15  1  0
 14 16  1  0
 17 18  2  0
 17 33  1  0
 18 34  1  0
 19 20  2  0
 19 35  1  0
 20 36  1  0
 21 22  1  0
 21 23  2  0
 23 24  1  0
 23 27  1  0
 24 25  1  0
 24 26  2  0
 25 37  1  0
 25 38  1  0
 27 28  2  0
 28 39  1  0
 28 40  1  0
M  CHG  4  15  -1  16  -1  21   1  28   1
M  END

