
     RDKit          3D

 31 32  0  0  0  0  0  0  0  0999 V2000
    1.9441    0.1147    2.0099 C   0  0  0  0  0  0  0  0  0  0  0  0
    2.8964   -0.0366    0.8475 C   0  0  0  0  0  0  0  0  0  0  0  0
    3.1225    1.0123   -0.0552 C   0  0  0  0  0  0  0  0  0  0  0  0
    4.0146    0.8637   -1.1204 C   0  0  0  0  0  0  0  0  0  0  0  0
    4.6823   -0.3447   -1.2810 C   0  0  0  0  0  0  0  0  0  0  0  0
    5.5439   -0.4769   -2.3083 F   0  0  0  0  0  0  0  0  0  0  0  0
    4.4884   -1.4255   -0.4113 C   0  0  0  0  0  0  0  0  0  0  0  0
    5.2527   -2.7182   -0.6075 C   0  0  0  0  0  0  0  0  0  0  0  0
    4.4581   -3.8707   -0.2369 N   0  0  0  0  0  0  0  0  0  0  0  0
    4.9665   -5.1619   -0.2118 C   0  0  0  0  0  0  0  0  0  0  0  0
    6.3516   -5.4317   -0.2771 C   0  0  0  0  0  0  0  0  0  0  0  0
    6.8028   -6.7509   -0.2040 C   0  0  0  0  0  0  0  0  0  0  0  0
    5.9186   -7.8227   -0.0795 C   0  0  0  0  0  0  0  0  0  0  0  0
    4.5400   -7.5569   -0.0271 C   0  0  0  0  0  0  0  0  0  0  0  0
    3.6142   -8.5470    0.0891 O   0  0  0  0  0  0  0  0  0  0  0  0
    4.0710   -6.2442   -0.0925 C   0  0  0  0  0  0  0  0  0  0  0  0
    3.5900   -1.2415    0.6484 C   0  0  0  0  0  0  0  0  0  0  0  0
    1.4344    1.0892    1.9903 H   0  0  0  0  0  0  0  0  0  0  0  0
    2.4728    0.0333    2.9746 H   0  0  0  0  0  0  0  0  0  0  0  0
    1.1701   -0.6704    2.0017 H   0  0  0  0  0  0  0  0  0  0  0  0
    2.5955    1.9616    0.0724 H   0  0  0  0  0  0  0  0  0  0  0  0
    4.2000    1.6710   -1.8316 H   0  0  0  0  0  0  0  0  0  0  0  0
    6.1542   -2.6907    0.0315 H   0  0  0  0  0  0  0  0  0  0  0  0
    5.6223   -2.7713   -1.6493 H   0  0  0  0  0  0  0  0  0  0  0  0
    3.4795   -3.8063   -0.4948 H   0  0  0  0  0  0  0  0  0  0  0  0
    7.0735   -4.6232   -0.3880 H   0  0  0  0  0  0  0  0  0  0  0  0
    7.8772   -6.9480   -0.2537 H   0  0  0  0  0  0  0  0  0  0  0  0
    6.2857   -8.8520   -0.0284 H   0  0  0  0  0  0  0  0  0  0  0  0
    4.0663   -9.3998    0.1237 H   0  0  0  0  0  0  0  0  0  0  0  0
    2.9931   -6.0727   -0.0393 H   0  0  0  0  0  0  0  0  0  0  0  0
    3.4319   -2.0755    1.3376 H   0  0  0  0  0  0  0  0  0  0  0  0
  1  2  1  0
  1 18  1  0
  1 19  1  0
  1 20  1  0
  2  3  2  0
  2 17  1  0
  3  4  1  0
  3 21  1  0
  4  5  2  0
  4 22  1  0
  5  6  1  0
  5  7  1  0
  7  8  1  0
  7 17  2  0
  8  9  1  0
  8 23  1  0
  8 24  1  0
  9 10  1  0
  9 25  1  0
 10 11  2  0
 10 16  1  0
 11 12  1  0
 11 26  1  0
 12 13  2  0
 12 27  1  0
 13 14  1  0
 13 28  1  0
 14 15  1  0
 14 16  2  0
 15 29  1  0
 16 30  1  0
 17 31  1  0
M  END

