
     RDKit          3D

 56 62  0  0  0  0  0  0  0  0999 V2000
    2.9822   -3.4432    1.5283 C   0  0  0  0  0  0  0  0  0  0  0  0
    2.7804   -2.5748    0.2812 C   0  0  1  0  0  0  0  0  0  0  0  0
    1.2907   -2.3182    0.0216 C   0  0  0  0  0  0  0  0  0  0  0  0
    3.5478   -1.2253    0.3474 C   0  0  0  0  0  0  0  0  0  0  0  0
    5.0542   -1.3242    0.4465 C   0  0  0  0  0  0  0  0  0  0  0  0
    5.7380   -1.1400    1.6335 C   0  0  0  0  0  0  0  0  0  0  0  0
    7.1732   -1.2661    1.6506 C   0  0  0  0  0  0  0  0  0  0  0  0
    7.7070   -1.0341    2.9412 C   0  0  0  0  0  0  0  0  0  0  0  0
    9.0789   -1.1219    3.1369 C   0  0  0  0  0  0  0  0  0  0  0  0
    9.8955   -1.4415    2.0299 C   0  0  0  0  0  0  0  0  0  0  0  0
    9.3629   -1.6642    0.7624 C   0  0  0  0  0  0  0  0  0  0  0  0
    7.9650   -1.5776    0.5382 C   0  0  0  0  0  0  0  0  0  0  0  0
    7.2661   -1.7663   -0.7231 C   0  0  0  0  0  0  0  0  0  0  0  0
    7.9601   -2.0669   -1.9175 C   0  0  0  0  0  0  0  0  0  0  0  0
    7.2987   -2.2282   -3.1234 C   0  0  0  0  0  0  0  0  0  0  0  0
    5.9008   -2.0860   -3.1701 C   0  0  0  0  0  0  0  0  0  0  0  0
    5.1942   -1.7952   -2.0149 C   0  0  0  0  0  0  0  0  0  0  0  0
    5.8341   -1.6308   -0.7562 C   0  0  0  0  0  0  0  0  0  0  0  0
    6.5746   -0.7328    3.8242 C   0  0  0  0  0  0  0  0  0  0  0  0
    6.5466   -0.4304    5.1604 C   0  0  0  0  0  0  0  0  0  0  0  0
    5.3013   -0.1705    5.8177 C   0  0  0  0  0  0  0  0  0  0  0  0
    5.2265    0.1439    7.1814 C   0  0  0  0  0  0  0  0  0  0  0  0
    4.0004    0.3958    7.8201 C   0  0  0  0  0  0  0  0  0  0  0  0
    3.9129    0.7179    9.2116 C   0  0  0  0  0  0  0  0  0  0  0  0
    2.6983    0.9588    9.8063 C   0  0  0  0  0  0  0  0  0  0  0  0
    1.4947    0.8921    9.0436 C   0  0  0  0  0  0  0  0  0  0  0  0
    1.5361    0.5861    7.7051 C   0  0  0  0  0  0  0  0  0  0  0  0
    2.7802    0.3281    7.0469 C   0  0  0  0  0  0  0  0  0  0  0  0
    2.8565    0.0122    5.6799 C   0  0  0  0  0  0  0  0  0  0  0  0
    4.0794   -0.2387    5.0421 C   0  0  0  0  0  0  0  0  0  0  0  0
    4.1449   -0.5623    3.6456 C   0  0  0  0  0  0  0  0  0  0  0  0
    5.3503   -0.8011    3.0294 C   0  0  0  0  0  0  0  0  0  0  0  0
    2.4866   -4.4197    1.4043 H   0  0  0  0  0  0  0  0  0  0  0  0
    2.5525   -2.9669    2.4252 H   0  0  0  0  0  0  0  0  0  0  0  0
    4.0479   -3.6318    1.7288 H   0  0  0  0  0  0  0  0  0  0  0  0
    3.1790   -3.1404   -0.5794 H   0  0  0  0  0  0  0  0  0  0  0  0
    0.8383   -1.7410    0.8466 H   0  0  0  0  0  0  0  0  0  0  0  0
    0.7323   -3.2641   -0.0652 H   0  0  0  0  0  0  0  0  0  0  0  0
    1.1308   -1.7475   -0.9081 H   0  0  0  0  0  0  0  0  0  0  0  0
    3.1609   -0.6411    1.1927 H   0  0  0  0  0  0  0  0  0  0  0  0
    3.2825   -0.6392   -0.5476 H   0  0  0  0  0  0  0  0  0  0  0  0
    9.5289   -0.9504    4.1179 H   0  0  0  0  0  0  0  0  0  0  0  0
   10.9770   -1.5145    2.1707 H   0  0  0  0  0  0  0  0  0  0  0  0
   10.0414   -1.9049   -0.0578 H   0  0  0  0  0  0  0  0  0  0  0  0
    9.0460   -2.1707   -1.8896 H   0  0  0  0  0  0  0  0  0  0  0  0
    7.8609   -2.4592   -4.0314 H   0  0  0  0  0  0  0  0  0  0  0  0
    5.3681   -2.2028   -4.1172 H   0  0  0  0  0  0  0  0  0  0  0  0
    4.1128   -1.6865   -2.0867 H   0  0  0  0  0  0  0  0  0  0  0  0
    7.4704   -0.3827    5.7434 H   0  0  0  0  0  0  0  0  0  0  0  0
    6.1497    0.1945    7.7660 H   0  0  0  0  0  0  0  0  0  0  0  0
    4.8360    0.7690    9.7956 H   0  0  0  0  0  0  0  0  0  0  0  0
    2.6477    1.2037   10.8703 H   0  0  0  0  0  0  0  0  0  0  0  0
    0.5367    1.0867    9.5326 H   0  0  0  0  0  0  0  0  0  0  0  0
    0.6140    0.5347    7.1195 H   0  0  0  0  0  0  0  0  0  0  0  0
    1.9326   -0.0387    5.0961 H   0  0  0  0  0  0  0  0  0  0  0  0
    3.2012   -0.6138    3.1041 H   0  0  0  0  0  0  0  0  0  0  0  0
  1  2  1  0
  1 33  1  0
  1 34  1  0
  1 35  1  0
  2  3  1  0
  2  4  1  0
  2 36  1  6
  3 37  1  0
  3 38  1  0
  3 39  1  0
  4  5  1  0
  4 40  1  0
  4 41  1  0
  5  6  2  0
  5 18  1  0
  6  7  1  0
  6 32  1  0
  7  8  2  0
  7 12  1  0
  8  9  1  0
  8 19  1  0
  9 10  2  0
  9 42  1  0
 10 11  1  0
 10 43  1  0
 11 12  2  0
 11 44  1  0
 12 13  1  0
 13 14  1  0
 13 18  2  0
 14 15  2  0
 14 45  1  0
 15 16  1  0
 15 46  1  0
 16 17  2  0
 16 47  1  0
 17 18  1  0
 17 48  1  0
 19 20  1  0
 19 32  2  0
 20 21  2  0
 20 49  1  0
 21 22  1  0
 21 30  1  0
 22 23  2  0
 22 50  1  0
 23 24  1  0
 23 28  1  0
 24 25  2  0
 24 51  1  0
 25 26  1  0
 25 52  1  0
 26 27  2  0
 26 53  1  0
 27 28  1  0
 27 54  1  0
 28 29  2  0
 29 30  1  0
 29 55  1  0
 30 31  2  0
 31 32  1  0
 31 56  1  0
M  END

