
     RDKit          3D

 66 70  0  0  0  0  0  0  0  0999 V2000
    3.8673    2.3047   -5.8476 C   0  0  0  0  0  0  0  0  0  0  0  0
    3.4347    3.6684   -5.3049 C   0  0  0  0  0  0  0  0  0  0  0  0
    3.4850    3.7732   -3.8545 N   0  0  0  0  0  0  0  0  0  0  0  0
    4.6624    4.0678   -3.2157 C   0  0  0  0  0  0  0  0  0  0  0  0
    5.6707    4.3819   -3.8447 O   0  0  0  0  0  0  0  0  0  0  0  0
    4.6894    4.0378   -1.8205 N   0  0  0  0  0  0  0  0  0  0  0  0
    3.6635    3.6282   -0.8283 C   0  0  0  0  0  0  0  0  0  0  0  0
    2.2461    3.3762   -1.2493 C   0  0  0  0  0  0  0  0  0  0  0  0
    1.5614    2.1133   -1.3746 C   0  0  0  0  0  0  0  0  0  0  0  0
    2.1127    0.7395   -1.3461 C   0  0  0  0  0  0  0  0  0  0  0  0
    3.4443    0.4639   -1.7025 C   0  0  0  0  0  0  0  0  0  0  0  0
    3.9261   -0.8482   -1.6795 C   0  0  0  0  0  0  0  0  0  0  0  0
    3.0884   -1.9018   -1.3078 C   0  0  0  0  0  0  0  0  0  0  0  0
    1.7594   -1.6374   -0.9562 C   0  0  0  0  0  0  0  0  0  0  0  0
    1.2754   -0.3304   -0.9727 C   0  0  0  0  0  0  0  0  0  0  0  0
    0.2593    2.2702   -1.5024 N   0  0  0  0  0  0  0  0  0  0  0  0
    0.0402    3.6480   -1.4729 O   0  0  0  0  0  0  0  0  0  0  0  0
    1.2046    4.2974   -1.3099 C   0  0  0  0  0  0  0  0  0  0  0  0
    1.1473    5.6564   -1.2177 N   0  0  0  0  0  0  0  0  0  0  0  0
   -0.1397    6.3406   -1.1004 C   0  0  0  0  0  0  0  0  0  0  0  0
   -0.0161    7.4768   -0.0861 C   0  0  0  0  0  0  0  0  0  0  0  0
    1.2007    8.3433   -0.3370 C   0  0  0  0  0  0  0  0  0  0  0  0
    1.2907    9.6313    0.2155 C   0  0  0  0  0  0  0  0  0  0  0  0
    2.4137   10.4305    0.0054 C   0  0  0  0  0  0  0  0  0  0  0  0
    3.4737    9.9463   -0.7694 C   0  0  0  0  0  0  0  0  0  0  0  0
    3.3962    8.6689   -1.3225 C   0  0  0  0  0  0  0  0  0  0  0  0
    2.2697    7.8584   -1.1115 C   0  0  0  0  0  0  0  0  0  0  0  0
    2.2174    6.4902   -1.7618 C   0  0  0  0  0  0  0  0  0  0  0  0
    6.0000    4.3016   -1.2256 C   0  0  0  0  0  0  0  0  0  0  0  0
    6.9420    3.0995   -1.2329 C   0  0  1  0  0  0  0  0  0  0  0  0
    7.0747    2.7829   -2.2829 H   0  0  0  0  0  0  0  0  0  0  0  0
    8.3071    3.3553   -0.5823 C   0  0  0  0  0  0  0  0  0  0  0  0
    8.6856    1.9613   -0.0686 C   0  0  0  0  0  0  0  0  0  0  0  0
    7.3246    1.4139    0.3730 C   0  0  0  0  0  0  0  0  0  0  0  0
    6.3642    2.0077   -0.4953 O   0  0  0  0  0  0  0  0  0  0  0  0
    3.7904    2.2818   -6.9472 H   0  0  0  0  0  0  0  0  0  0  0  0
    3.2380    1.4937   -5.4457 H   0  0  0  0  0  0  0  0  0  0  0  0
    4.9137    2.1005   -5.5741 H   0  0  0  0  0  0  0  0  0  0  0  0
    2.4025    3.8949   -5.6204 H   0  0  0  0  0  0  0  0  0  0  0  0
    4.0855    4.4534   -5.7159 H   0  0  0  0  0  0  0  0  0  0  0  0
    2.7167    3.3966   -3.3131 H   0  0  0  0  0  0  0  0  0  0  0  0
    3.6440    4.4234   -0.0604 H   0  0  0  0  0  0  0  0  0  0  0  0
    4.0381    2.7297   -0.3162 H   0  0  0  0  0  0  0  0  0  0  0  0
    4.1195    1.2640   -2.0037 H   0  0  0  0  0  0  0  0  0  0  0  0
    4.9658   -1.0397   -1.9555 H   0  0  0  0  0  0  0  0  0  0  0  0
    3.4682   -2.9267   -1.2900 H   0  0  0  0  0  0  0  0  0  0  0  0
    1.0971   -2.4560   -0.6627 H   0  0  0  0  0  0  0  0  0  0  0  0
    0.2419   -0.1167   -0.6959 H   0  0  0  0  0  0  0  0  0  0  0  0
   -0.9046    5.6194   -0.7913 H   0  0  0  0  0  0  0  0  0  0  0  0
   -0.4455    6.7390   -2.0884 H   0  0  0  0  0  0  0  0  0  0  0  0
    0.0456    7.0431    0.9284 H   0  0  0  0  0  0  0  0  0  0  0  0
   -0.9310    8.0919   -0.1070 H   0  0  0  0  0  0  0  0  0  0  0  0
    0.4599   10.0098    0.8187 H   0  0  0  0  0  0  0  0  0  0  0  0
    2.4629   11.4309    0.4428 H   0  0  0  0  0  0  0  0  0  0  0  0
    4.3591   10.5635   -0.9408 H   0  0  0  0  0  0  0  0  0  0  0  0
    4.2233    8.2881   -1.9296 H   0  0  0  0  0  0  0  0  0  0  0  0
    3.1830    5.9849   -1.6430 H   0  0  0  0  0  0  0  0  0  0  0  0
    2.0721    6.6126   -2.8561 H   0  0  0  0  0  0  0  0  0  0  0  0
    5.8431    4.6308   -0.1854 H   0  0  0  0  0  0  0  0  0  0  0  0
    6.4836    5.1171   -1.7814 H   0  0  0  0  0  0  0  0  0  0  0  0
    8.2031    4.0608    0.2612 H   0  0  0  0  0  0  0  0  0  0  0  0
    9.0366    3.7793   -1.2878 H   0  0  0  0  0  0  0  0  0  0  0  0
    9.4266    1.9755    0.7449 H   0  0  0  0  0  0  0  0  0  0  0  0
    9.0967    1.3517   -0.8901 H   0  0  0  0  0  0  0  0  0  0  0  0
    7.1067    1.6915    1.4232 H   0  0  0  0  0  0  0  0  0  0  0  0
    7.2509    0.3162    0.2972 H   0  0  0  0  0  0  0  0  0  0  0  0
  1  2  1  0
  1 36  1  0
  1 37  1  0
  1 38  1  0
  2  3  1  0
  2 39  1  0
  2 40  1  0
  3  4  1  0
  3 41  1  0
  4  5  2  0
  4  6  1  0
  6  7  1  0
  6 29  1  0
  7  8  1  0
  7 42  1  0
  7 43  1  0
  8  9  1  0
  8 18  2  0
  9 10  1  0
  9 16  2  0
 10 11  2  0
 10 15  1  0
 11 12  1  0
 11 44  1  0
 12 13  2  0
 12 45  1  0
 13 14  1  0
 13 46  1  0
 14 15  2  0
 14 47  1  0
 15 48  1  0
 16 17  1  0
 17 18  1  0
 18 19  1  0
 19 20  1  0
 19 28  1  0
 20 21  1  0
 20 49  1  0
 20 50  1  0
 21 22  1  0
 21 51  1  0
 21 52  1  0
 22 23  2  0
 22 27  1  0
 23 24  1  0
 23 53  1  0
 24 25  2  0
 24 54  1  0
 25 26  1  0
 25 55  1  0
 26 27  2  0
 26 56  1  0
 27 28  1  0
 28 57  1  0
 28 58  1  0
 29 30  1  0
 29 59  1  0
 29 60  1  0
 30 31  1  6
 30 32  1  0
 30 35  1  0
 32 33  1  0
 32 61  1  0
 32 62  1  0
 33 34  1  0
 33 63  1  0
 33 64  1  0
 34 35  1  0
 34 65  1  0
 34 66  1  0
M  END

