
     RDKit          3D

 50 53  0  0  0  0  0  0  0  0999 V2000
   -2.6179    6.9982   -2.4059 C   0  0  0  0  0  0  0  0  0  0  0  0
   -1.9992    6.8713   -3.6636 O   0  0  0  0  0  0  0  0  0  0  0  0
   -0.6915    6.4982   -3.7248 C   0  0  0  0  0  0  0  0  0  0  0  0
    0.1145    6.2242   -2.6074 C   0  0  0  0  0  0  0  0  0  0  0  0
    1.4477    5.8479   -2.7818 C   0  0  0  0  0  0  0  0  0  0  0  0
    2.0019    5.7378   -4.0624 C   0  0  0  0  0  0  0  0  0  0  0  0
    3.3159    5.3630   -4.1277 O   0  0  0  0  0  0  0  0  0  0  0  0
    3.9363    5.2188   -5.3838 C   0  0  0  0  0  0  0  0  0  0  0  0
    5.3830    4.8080   -5.1063 C   0  0  0  0  0  0  0  0  0  0  0  0
    6.1478    4.5773   -6.3150 N   0  0  0  0  0  0  0  0  0  0  0  0
    6.7622    5.5189   -7.1382 C   0  0  0  0  0  0  0  0  0  0  0  0
    6.7650    6.8581   -6.7544 N   0  0  0  0  0  0  0  0  0  0  0  0
    6.7646    7.9459   -7.6145 C   0  0  0  0  0  0  0  0  0  0  0  0
    6.6988    7.8437   -8.8183 O   0  0  0  0  0  0  0  0  0  0  0  0
    6.9253    9.3159   -6.9713 C   0  0  0  0  0  0  0  0  0  0  0  0
    7.5195   10.2759   -7.8141 C   0  0  0  0  0  0  0  0  0  0  0  0
    7.7410   11.5867   -7.4025 C   0  0  0  0  0  0  0  0  0  0  0  0
    7.3490   11.9853   -6.1215 C   0  0  0  0  0  0  0  0  0  0  0  0
    6.7365   11.0681   -5.2688 C   0  0  0  0  0  0  0  0  0  0  0  0
    6.5303    9.7505   -5.6913 C   0  0  0  0  0  0  0  0  0  0  0  0
    5.7047    8.7025   -4.5311 Cl  0  0  0  0  0  0  0  0  0  0  0  0
    7.3069    5.0142   -8.2083 N   0  0  0  0  0  0  0  0  0  0  0  0
    7.0450    3.6592   -8.1393 C   0  0  0  0  0  0  0  0  0  0  0  0
    7.3962    2.6297   -9.0246 C   0  0  0  0  0  0  0  0  0  0  0  0
    7.0148    1.3273   -8.7039 C   0  0  0  0  0  0  0  0  0  0  0  0
    6.2956    1.0428   -7.5251 C   0  0  0  0  0  0  0  0  0  0  0  0
    5.9366    2.0523   -6.6286 C   0  0  0  0  0  0  0  0  0  0  0  0
    6.3218    3.3553   -6.9570 C   0  0  0  0  0  0  0  0  0  0  0  0
    1.1984    6.0108   -5.1807 C   0  0  0  0  0  0  0  0  0  0  0  0
   -0.1338    6.3868   -5.0063 C   0  0  0  0  0  0  0  0  0  0  0  0
   -3.6563    7.3027   -2.5951 H   0  0  0  0  0  0  0  0  0  0  0  0
   -2.1303    7.7684   -1.7798 H   0  0  0  0  0  0  0  0  0  0  0  0
   -2.6236    6.0432   -1.8484 H   0  0  0  0  0  0  0  0  0  0  0  0
   -0.2832    6.2995   -1.5951 H   0  0  0  0  0  0  0  0  0  0  0  0
    2.0818    5.6321   -1.9193 H   0  0  0  0  0  0  0  0  0  0  0  0
    3.9152    6.1676   -5.9513 H   0  0  0  0  0  0  0  0  0  0  0  0
    3.4349    4.4456   -5.9960 H   0  0  0  0  0  0  0  0  0  0  0  0
    5.3904    3.8862   -4.5068 H   0  0  0  0  0  0  0  0  0  0  0  0
    5.8648    5.5805   -4.4866 H   0  0  0  0  0  0  0  0  0  0  0  0
    6.7382    7.0537   -5.7596 H   0  0  0  0  0  0  0  0  0  0  0  0
    7.7968    9.9470   -8.8169 H   0  0  0  0  0  0  0  0  0  0  0  0
    8.2143   12.2984   -8.0825 H   0  0  0  0  0  0  0  0  0  0  0  0
    7.5104   13.0116   -5.7831 H   0  0  0  0  0  0  0  0  0  0  0  0
    6.4057   11.3639   -4.2720 H   0  0  0  0  0  0  0  0  0  0  0  0
    7.9530    2.8596   -9.9351 H   0  0  0  0  0  0  0  0  0  0  0  0
    7.2756    0.5078   -9.3782 H   0  0  0  0  0  0  0  0  0  0  0  0
    6.0101    0.0106   -7.3075 H   0  0  0  0  0  0  0  0  0  0  0  0
    5.3761    1.8222   -5.7196 H   0  0  0  0  0  0  0  0  0  0  0  0
    1.5963    5.9355   -6.1931 H   0  0  0  0  0  0  0  0  0  0  0  0
   -0.7685    6.6017   -5.8684 H   0  0  0  0  0  0  0  0  0  0  0  0
  1  2  1  0
  1 31  1  0
  1 32  1  0
  1 33  1  0
  2  3  1  0
  3  4  2  0
  3 30  1  0
  4  5  1  0
  4 34  1  0
  5  6  2  0
  5 35  1  0
  6  7  1  0
  6 29  1  0
  7  8  1  0
  8  9  1  0
  8 36  1  0
  8 37  1  0
  9 10  1  0
  9 38  1  0
  9 39  1  0
 10 11  1  0
 10 28  1  0
 11 12  1  0
 11 22  2  0
 12 13  1  0
 12 40  1  0
 13 14  2  0
 13 15  1  0
 15 16  2  0
 15 20  1  0
 16 17  1  0
 16 41  1  0
 17 18  2  0
 17 42  1  0
 18 19  1  0
 18 43  1  0
 19 20  2  0
 19 44  1  0
 20 21  1  0
 22 23  1  0
 23 24  2  0
 23 28  1  0
 24 25  1  0
 24 45  1  0
 25 26  2  0
 25 46  1  0
 26 27  1  0
 26 47  1  0
 27 28  2  0
 27 48  1  0
 29 30  2  0
 29 49  1  0
 30 50  1  0
M  END

