
     RDKit          3D

110117  0  0  0  0  0  0  0  0999 V2000
  -10.4724   -0.2829    3.8117 C   0  0  0  0  0  0  0  0  0  0  0  0
   -9.2677    0.5285    4.3214 C   0  0  2  0  0  0  0  0  0  0  0  0
   -8.7203   -0.1679    5.5890 C   0  0  0  0  0  0  0  0  0  0  0  0
   -9.7637    1.9466    4.6884 C   0  0  0  0  0  0  0  0  0  0  0  0
   -8.1480    0.6315    3.2664 C   0  0  0  0  0  0  0  0  0  0  0  0
   -6.9630    1.3445    3.5701 C   0  0  0  0  0  0  0  0  0  0  0  0
   -5.9071    1.4918    2.6724 C   0  0  0  0  0  0  0  0  0  0  0  0
   -6.0285    0.8961    1.4116 C   0  0  0  0  0  0  0  0  0  0  0  0
   -7.1971    0.1761    1.0758 C   0  0  0  0  0  0  0  0  0  0  0  0
   -8.2454    0.0489    1.9984 C   0  0  0  0  0  0  0  0  0  0  0  0
   -7.0241   -0.3137   -0.2799 C   0  0  0  0  0  0  0  0  0  0  0  0
   -7.8589   -1.0315   -1.1407 C   0  0  0  0  0  0  0  0  0  0  0  0
   -7.4574   -1.3273   -2.4528 C   0  0  0  0  0  0  0  0  0  0  0  0
   -8.3954   -2.1272   -3.3805 C   0  0  2  0  0  0  0  0  0  0  0  0
   -7.7858   -2.3496   -4.7766 C   0  0  0  0  0  0  0  0  0  0  0  0
   -9.7271   -1.3606   -3.5545 C   0  0  0  0  0  0  0  0  0  0  0  0
   -8.6792   -3.5121   -2.7538 C   0  0  0  0  0  0  0  0  0  0  0  0
   -6.1951   -0.8557   -2.8694 C   0  0  0  0  0  0  0  0  0  0  0  0
   -5.3377   -0.1384   -2.0286 C   0  0  0  0  0  0  0  0  0  0  0  0
   -5.7449    0.1149   -0.7158 C   0  0  0  0  0  0  0  0  0  0  0  0
   -5.1229    0.8353    0.3259 N   0  0  0  0  0  0  0  0  0  0  0  0
   -3.8143    1.3342    0.3281 C   0  0  0  0  0  0  0  0  0  0  0  0
   -2.7767    0.6773   -0.3676 C   0  0  0  0  0  0  0  0  0  0  0  0
   -1.5008    1.2270   -0.3346 C   0  0  0  0  0  0  0  0  0  0  0  0
   -1.2645    2.4082    0.3893 C   0  0  0  0  0  0  0  0  0  0  0  0
    0.0400    3.1417    0.4389 C   0  0  0  0  0  0  0  0  0  0  0  0
    0.0509    4.3506    0.6104 O   0  0  0  0  0  0  0  0  0  0  0  0
    1.3313    2.4004    0.2796 C   0  0  0  0  0  0  0  0  0  0  0  0
    1.5447    1.0605    0.6459 C   0  0  0  0  0  0  0  0  0  0  0  0
    2.8109    0.5012    0.5225 C   0  0  0  0  0  0  0  0  0  0  0  0
    3.8619    1.3078    0.0361 C   0  0  0  0  0  0  0  0  0  0  0  0
    5.1620    0.8051   -0.1020 N   0  0  0  0  0  0  0  0  0  0  0  0
    5.7688   -0.1849    0.6988 C   0  0  0  0  0  0  0  0  0  0  0  0
    5.3523   -0.7813    1.8961 C   0  0  0  0  0  0  0  0  0  0  0  0
    6.1946   -1.7137    2.5007 C   0  0  0  0  0  0  0  0  0  0  0  0
    7.4528   -2.0786    1.9661 C   0  0  0  0  0  0  0  0  0  0  0  0
    8.3154   -3.1286    2.6948 C   0  0  2  0  0  0  0  0  0  0  0  0
    9.6472   -3.3896    1.9684 C   0  0  0  0  0  0  0  0  0  0  0  0
    7.5411   -4.4648    2.7751 C   0  0  0  0  0  0  0  0  0  0  0  0
    8.6358   -2.6342    4.1246 C   0  0  0  0  0  0  0  0  0  0  0  0
    7.8630   -1.4449    0.7876 C   0  0  0  0  0  0  0  0  0  0  0  0
    7.0386   -0.5003    0.1604 C   0  0  0  0  0  0  0  0  0  0  0  0
    7.2248    0.3389   -1.0087 C   0  0  0  0  0  0  0  0  0  0  0  0
    8.2732    0.4510   -1.9337 C   0  0  0  0  0  0  0  0  0  0  0  0
    8.1894    1.3610   -2.9926 C   0  0  0  0  0  0  0  0  0  0  0  0
    9.3099    1.5318   -4.0379 C   0  0  1  0  0  0  0  0  0  0  0  0
    8.7530    1.2232   -5.4472 C   0  0  0  0  0  0  0  0  0  0  0  0
    9.8339    2.9863   -4.0003 C   0  0  0  0  0  0  0  0  0  0  0  0
   10.4974    0.5883   -3.7753 C   0  0  0  0  0  0  0  0  0  0  0  0
    7.0182    2.1516   -3.0864 C   0  0  0  0  0  0  0  0  0  0  0  0
    5.9629    2.0660   -2.1803 C   0  0  0  0  0  0  0  0  0  0  0  0
    6.0705    1.1450   -1.1316 C   0  0  0  0  0  0  0  0  0  0  0  0
    3.6604    2.5778   -0.3369 N   0  0  0  0  0  0  0  0  0  0  0  0
    2.4476    3.1024   -0.2104 C   0  0  0  0  0  0  0  0  0  0  0  0
   -2.3691    2.9652    1.0589 C   0  0  0  0  0  0  0  0  0  0  0  0
   -3.5910    2.4469    1.0388 N   0  0  0  0  0  0  0  0  0  0  0  0
  -10.9307    0.1768    2.9221 H   0  0  0  0  0  0  0  0  0  0  0  0
  -11.2469   -0.3327    4.5932 H   0  0  0  0  0  0  0  0  0  0  0  0
  -10.1933   -1.3176    3.5577 H   0  0  0  0  0  0  0  0  0  0  0  0
   -8.3665   -1.1854    5.3582 H   0  0  0  0  0  0  0  0  0  0  0  0
   -7.8784    0.3861    6.0315 H   0  0  0  0  0  0  0  0  0  0  0  0
   -9.5075   -0.2465    6.3570 H   0  0  0  0  0  0  0  0  0  0  0  0
  -10.5641    1.8918    5.4450 H   0  0  0  0  0  0  0  0  0  0  0  0
   -8.9570    2.5703    5.1024 H   0  0  0  0  0  0  0  0  0  0  0  0
  -10.1660    2.4649    3.8035 H   0  0  0  0  0  0  0  0  0  0  0  0
   -6.8600    1.8168    4.5498 H   0  0  0  0  0  0  0  0  0  0  0  0
   -5.0257    2.0715    2.9354 H   0  0  0  0  0  0  0  0  0  0  0  0
   -9.1328   -0.5132    1.7073 H   0  0  0  0  0  0  0  0  0  0  0  0
   -8.8388   -1.3505   -0.7782 H   0  0  0  0  0  0  0  0  0  0  0  0
   -8.4856   -2.9272   -5.4008 H   0  0  0  0  0  0  0  0  0  0  0  0
   -7.5887   -1.3988   -5.2963 H   0  0  0  0  0  0  0  0  0  0  0  0
   -6.8424   -2.9160   -4.7283 H   0  0  0  0  0  0  0  0  0  0  0  0
  -10.2425   -1.2081   -2.5939 H   0  0  0  0  0  0  0  0  0  0  0  0
   -9.5561   -0.3690   -4.0029 H   0  0  0  0  0  0  0  0  0  0  0  0
  -10.4113   -1.9199   -4.2139 H   0  0  0  0  0  0  0  0  0  0  0  0
   -9.1584   -3.4257   -1.7666 H   0  0  0  0  0  0  0  0  0  0  0  0
   -7.7473   -4.0851   -2.6237 H   0  0  0  0  0  0  0  0  0  0  0  0
   -9.3525   -4.0985   -3.4008 H   0  0  0  0  0  0  0  0  0  0  0  0
   -5.8557   -1.0408   -3.8883 H   0  0  0  0  0  0  0  0  0  0  0  0
   -4.3889    0.2250   -2.4213 H   0  0  0  0  0  0  0  0  0  0  0  0
   -2.9622   -0.2559   -0.8961 H   0  0  0  0  0  0  0  0  0  0  0  0
   -0.6942    0.7380   -0.8847 H   0  0  0  0  0  0  0  0  0  0  0  0
    0.7279    0.4520    1.0393 H   0  0  0  0  0  0  0  0  0  0  0  0
    2.9786   -0.5454    0.7697 H   0  0  0  0  0  0  0  0  0  0  0  0
    4.4093   -0.5213    2.3757 H   0  0  0  0  0  0  0  0  0  0  0  0
    5.8559   -2.1693    3.4337 H   0  0  0  0  0  0  0  0  0  0  0  0
    9.4903   -3.7700    0.9468 H   0  0  0  0  0  0  0  0  0  0  0  0
   10.2293   -4.1468    2.5168 H   0  0  0  0  0  0  0  0  0  0  0  0
   10.2659   -2.4809    1.9047 H   0  0  0  0  0  0  0  0  0  0  0  0
    7.3059   -4.8456    1.7684 H   0  0  0  0  0  0  0  0  0  0  0  0
    6.5921   -4.3579    3.3224 H   0  0  0  0  0  0  0  0  0  0  0  0
    8.1418   -5.2285    3.2965 H   0  0  0  0  0  0  0  0  0  0  0  0
    7.7236   -2.4697    4.7181 H   0  0  0  0  0  0  0  0  0  0  0  0
    9.2514   -3.3757    4.6603 H   0  0  0  0  0  0  0  0  0  0  0  0
    9.1930   -1.6842    4.0979 H   0  0  0  0  0  0  0  0  0  0  0  0
    8.8338   -1.6655    0.3439 H   0  0  0  0  0  0  0  0  0  0  0  0
    9.1496   -0.1853   -1.8104 H   0  0  0  0  0  0  0  0  0  0  0  0
    9.5410    1.3445   -6.2090 H   0  0  0  0  0  0  0  0  0  0  0  0
    7.9234    1.8940   -5.7176 H   0  0  0  0  0  0  0  0  0  0  0  0
    8.3790    0.1886   -5.5056 H   0  0  0  0  0  0  0  0  0  0  0  0
    9.0403    3.7154   -4.2241 H   0  0  0  0  0  0  0  0  0  0  0  0
   10.6354    3.1274   -4.7444 H   0  0  0  0  0  0  0  0  0  0  0  0
   10.2431    3.2324   -3.0076 H   0  0  0  0  0  0  0  0  0  0  0  0
   11.2727    0.7410   -4.5426 H   0  0  0  0  0  0  0  0  0  0  0  0
   10.1977   -0.4707   -3.8153 H   0  0  0  0  0  0  0  0  0  0  0  0
   10.9625    0.7761   -2.7948 H   0  0  0  0  0  0  0  0  0  0  0  0
    6.9266    2.8763   -3.8986 H   0  0  0  0  0  0  0  0  0  0  0  0
    5.0927    2.7114   -2.2719 H   0  0  0  0  0  0  0  0  0  0  0  0
    2.3232    4.1482   -0.5105 H   0  0  0  0  0  0  0  0  0  0  0  0
   -2.2271    3.8840    1.6374 H   0  0  0  0  0  0  0  0  0  0  0  0
  2  1  1  6
  1 57  1  0
  1 58  1  0
  1 59  1  0
  2  3  1  0
  2  4  1  0
  2  5  1  0
  3 60  1  0
  3 61  1  0
  3 62  1  0
  4 63  1  0
  4 64  1  0
  4 65  1  0
  5  6  2  0
  5 10  1  0
  6  7  1  0
  6 66  1  0
  7  8  2  0
  7 67  1  0
  8  9  1  0
  8 21  1  0
  9 10  2  0
  9 11  1  0
 10 68  1  0
 11 12  2  0
 11 20  1  0
 12 13  1  0
 12 69  1  0
 13 14  1  0
 13 18  2  0
 14 15  1  6
 14 16  1  0
 14 17  1  0
 15 70  1  0
 15 71  1  0
 15 72  1  0
 16 73  1  0
 16 74  1  0
 16 75  1  0
 17 76  1  0
 17 77  1  0
 17 78  1  0
 18 19  1  0
 18 79  1  0
 19 20  2  0
 19 80  1  0
 20 21  1  0
 21 22  1  0
 22 23  2  0
 22 56  1  0
 23 24  1  0
 23 81  1  0
 24 25  2  0
 24 82  1  0
 25 26  1  0
 25 55  1  0
 26 27  2  0
 26 28  1  0
 28 29  2  0
 28 54  1  0
 29 30  1  0
 29 83  1  0
 30 31  2  0
 30 84  1  0
 31 32  1  0
 31 53  1  0
 32 33  1  0
 32 52  1  0
 33 34  2  0
 33 42  1  0
 34 35  1  0
 34 85  1  0
 35 36  2  0
 35 86  1  0
 36 37  1  0
 36 41  1  0
 37 38  1  6
 37 39  1  0
 37 40  1  0
 38 87  1  0
 38 88  1  0
 38 89  1  0
 39 90  1  0
 39 91  1  0
 39 92  1  0
 40 93  1  0
 40 94  1  0
 40 95  1  0
 41 42  2  0
 41 96  1  0
 42 43  1  0
 43 44  1  0
 43 52  2  0
 44 45  2  0
 44 97  1  0
 45 46  1  0
 45 50  1  0
 46 47  1  6
 46 48  1  0
 46 49  1  0
 47 98  1  0
 47 99  1  0
 47100  1  0
 48101  1  0
 48102  1  0
 48103  1  0
 49104  1  0
 49105  1  0
 49106  1  0
 50 51  2  0
 50107  1  0
 51 52  1  0
 51108  1  0
 53 54  2  0
 54109  1  0
 55 56  2  0
 55110  1  0
M  END

