
     RDKit          3D

 63 66  0  0  0  0  0  0  0  0999 V2000
    1.5002   -0.4832    1.0782 C   0  0  0  0  0  0  0  0  0  0  0  0
    2.5654   -0.5735    0.1113 N   0  0  0  0  0  0  0  0  0  0  0  0
    3.0217    0.4697   -0.6538 C   0  0  0  0  0  0  0  0  0  0  0  0
    2.4344    1.7608   -0.5703 C   0  0  0  0  0  0  0  0  0  0  0  0
    2.9118    2.7906   -1.3625 C   0  0  0  0  0  0  0  0  0  0  0  0
    3.9779    2.5992   -2.2596 C   0  0  0  0  0  0  0  0  0  0  0  0
    4.4088    3.7436   -3.0744 C   0  0  0  0  0  0  0  0  0  0  0  0
    3.9116    4.8584   -3.0117 O   0  0  0  0  0  0  0  0  0  0  0  0
    5.4618    3.4636   -3.9809 N   0  0  0  0  0  0  0  0  0  0  0  0
    5.9042    4.4830   -4.8864 C   0  0  0  0  0  0  0  0  0  0  0  0
    6.2406    5.7653   -4.4329 C   0  0  0  0  0  0  0  0  0  0  0  0
    6.6942    6.7447   -5.3151 C   0  0  0  0  0  0  0  0  0  0  0  0
    6.8271    6.4519   -6.6840 C   0  0  0  0  0  0  0  0  0  0  0  0
    7.2849    7.3801   -7.6419 N   0  0  0  0  0  0  0  0  0  0  0  0
    7.7340    8.6679   -7.4370 C   0  0  0  0  0  0  0  0  0  0  0  0
    7.7553    9.2475   -6.3717 O   0  0  0  0  0  0  0  0  0  0  0  0
    8.1971    9.2650   -8.6174 N   0  0  0  0  0  0  0  0  0  0  0  0
    8.6037   10.9193   -8.7720 S   0  0  1  0  0  0  0  0  0  0  0  0
    9.0041   10.9990  -10.1757 O   0  0  0  0  0  0  0  0  0  0  0  0
    7.5265   11.7163   -8.2095 O   0  0  0  0  0  0  0  0  0  0  0  0
   10.0368   11.1408   -7.7778 C   0  0  0  0  0  0  0  0  0  0  0  0
   10.0612   11.4742   -6.4455 C   0  0  0  0  0  0  0  0  0  0  0  0
   11.3912   11.5542   -5.9480 C   0  0  0  0  0  0  0  0  0  0  0  0
   12.3551   11.2787   -6.8951 C   0  0  0  0  0  0  0  0  0  0  0  0
   13.8446   11.2856   -6.7272 C   0  0  0  0  0  0  0  0  0  0  0  0
   11.6318   10.9177   -8.4377 S   0  0  0  0  0  0  0  0  0  0  0  0
    6.4842    5.1678   -7.1393 C   0  0  0  0  0  0  0  0  0  0  0  0
    6.0194    4.1988   -6.2529 C   0  0  0  0  0  0  0  0  0  0  0  0
    6.0517    2.2117   -4.0491 C   0  0  0  0  0  0  0  0  0  0  0  0
    5.6878    1.1488   -3.2855 C   0  0  0  0  0  0  0  0  0  0  0  0
    6.3903   -0.1872   -3.4490 C   0  0  0  0  0  0  0  0  0  0  0  0
    7.6708   -0.1080   -4.1402 N   0  0  0  0  0  0  0  0  0  0  0  0
    8.7459    0.3513   -3.2775 C   0  0  0  0  0  0  0  0  0  0  0  0
    8.0195   -1.3299   -4.8389 C   0  0  0  0  0  0  0  0  0  0  0  0
    4.5853    1.3150   -2.3528 C   0  0  0  0  0  0  0  0  0  0  0  0
    4.0915    0.2735   -1.5491 C   0  0  0  0  0  0  0  0  0  0  0  0
    1.3523   -1.4685    1.5416 H   0  0  0  0  0  0  0  0  0  0  0  0
    0.5407   -0.1837    0.6178 H   0  0  0  0  0  0  0  0  0  0  0  0
    1.7213    0.2386    1.8869 H   0  0  0  0  0  0  0  0  0  0  0  0
    3.0491   -1.4559    0.0217 H   0  0  0  0  0  0  0  0  0  0  0  0
    1.6059    1.9459    0.1140 H   0  0  0  0  0  0  0  0  0  0  0  0
    2.4672    3.7865   -1.3112 H   0  0  0  0  0  0  0  0  0  0  0  0
    6.1342    6.0070   -3.3765 H   0  0  0  0  0  0  0  0  0  0  0  0
    6.9484    7.7377   -4.9529 H   0  0  0  0  0  0  0  0  0  0  0  0
    7.2547    7.0496   -8.5989 H   0  0  0  0  0  0  0  0  0  0  0  0
    8.3326    8.7568   -9.4868 H   0  0  0  0  0  0  0  0  0  0  0  0
    9.1543   11.6337   -5.8634 H   0  0  0  0  0  0  0  0  0  0  0  0
   11.6367   11.8114   -4.9161 H   0  0  0  0  0  0  0  0  0  0  0  0
   14.1012   11.5280   -5.6858 H   0  0  0  0  0  0  0  0  0  0  0  0
   14.3261   12.0340   -7.3781 H   0  0  0  0  0  0  0  0  0  0  0  0
   14.2892   10.3058   -6.9673 H   0  0  0  0  0  0  0  0  0  0  0  0
    6.5705    4.9244   -8.2027 H   0  0  0  0  0  0  0  0  0  0  0  0
    5.7350    3.2149   -6.6316 H   0  0  0  0  0  0  0  0  0  0  0  0
    6.8712    2.1117   -4.7605 H   0  0  0  0  0  0  0  0  0  0  0  0
    5.7320   -0.8651   -4.0217 H   0  0  0  0  0  0  0  0  0  0  0  0
    6.5074   -0.6665   -2.4505 H   0  0  0  0  0  0  0  0  0  0  0  0
    8.4711    1.3017   -2.7969 H   0  0  0  0  0  0  0  0  0  0  0  0
    9.6603    0.5219   -3.8678 H   0  0  0  0  0  0  0  0  0  0  0  0
    8.9920   -0.3778   -2.4709 H   0  0  0  0  0  0  0  0  0  0  0  0
    7.2291   -1.6005   -5.5566 H   0  0  0  0  0  0  0  0  0  0  0  0
    8.1756   -2.2007   -4.1598 H   0  0  0  0  0  0  0  0  0  0  0  0
    8.9530   -1.1839   -5.4056 H   0  0  0  0  0  0  0  0  0  0  0  0
    4.5376   -0.7214   -1.6120 H   0  0  0  0  0  0  0  0  0  0  0  0
  1  2  1  0
  1 37  1  0
  1 38  1  0
  1 39  1  0
  2  3  1  0
  2 40  1  0
  3  4  2  0
  3 36  1  0
  4  5  1  0
  4 41  1  0
  5  6  2  0
  5 42  1  0
  6  7  1  0
  6 35  1  0
  7  8  2  0
  7  9  1  0
  9 10  1  0
  9 29  1  0
 10 11  2  0
 10 28  1  0
 11 12  1  0
 11 43  1  0
 12 13  2  0
 12 44  1  0
 13 14  1  0
 13 27  1  0
 14 15  1  0
 14 45  1  0
 15 16  2  0
 15 17  1  0
 18 17  1  6
 17 46  1  0
 18 19  2  0
 18 20  2  0
 18 21  1  0
 21 22  2  0
 21 26  1  0
 22 23  1  0
 22 47  1  0
 23 24  2  0
 23 48  1  0
 24 25  1  0
 24 26  1  0
 25 49  1  0
 25 50  1  0
 25 51  1  0
 27 28  2  0
 27 52  1  0
 28 53  1  0
 29 30  2  0
 29 54  1  0
 30 31  1  0
 30 35  1  0
 31 32  1  0
 31 55  1  0
 31 56  1  0
 32 33  1  0
 32 34  1  0
 33 57  1  0
 33 58  1  0
 33 59  1  0
 34 60  1  0
 34 61  1  0
 34 62  1  0
 35 36  2  0
 36 63  1  0
M  END

