
     RDKit          3D

 40 42  0  0  0  0  0  0  0  0999 V2000
    1.5680   -0.4923   -0.3176 O   0  0  0  0  0  0  0  0  0  0  0  0
    2.6162   -0.2326    0.2497 C   0  0  0  0  0  0  0  0  0  0  0  0
    3.3839    1.0727   -0.0281 C   0  0  0  0  0  0  0  0  0  0  0  0
    3.4500    1.9802    1.1079 N   0  0  0  0  0  0  0  0  0  0  0  0
    4.3827    1.8377    2.0903 C   0  0  0  0  0  0  0  0  0  0  0  0
    5.1882    0.9087    2.0802 O   0  0  0  0  0  0  0  0  0  0  0  0
    4.3966    2.8722    3.1793 C   0  0  0  0  0  0  0  0  0  0  0  0
    3.3088    3.7095    3.4784 C   0  0  0  0  0  0  0  0  0  0  0  0
    3.3869    4.6408    4.5146 C   0  0  0  0  0  0  0  0  0  0  0  0
    4.5667    4.7275    5.2520 C   0  0  0  0  0  0  0  0  0  0  0  0
    4.6486    5.6209    6.2438 F   0  0  0  0  0  0  0  0  0  0  0  0
    5.6591    3.9017    4.9879 C   0  0  0  0  0  0  0  0  0  0  0  0
    5.5634    2.9713    3.9556 C   0  0  0  0  0  0  0  0  0  0  0  0
    3.2114   -1.0398    1.1716 N   0  0  0  0  0  0  0  0  0  0  0  0
    2.6831   -2.3405    1.4902 C   0  0  0  0  0  0  0  0  0  0  0  0
    3.6139   -3.4498    1.0883 C   0  0  0  0  0  0  0  0  0  0  0  0
    4.7992   -3.2728    0.5916 N   0  0  0  0  0  0  0  0  0  0  0  0
    5.2947   -4.5374    0.4219 N   0  0  0  0  0  0  0  0  0  0  0  0
    6.2209   -4.6845    0.0429 H   0  0  0  0  0  0  0  0  0  0  0  0
    4.4367   -5.5387    0.8224 C   0  0  0  0  0  0  0  0  0  0  0  0
    4.5876   -6.7423    0.8054 O   0  0  0  0  0  0  0  0  0  0  0  0
    3.3141   -4.7928    1.2511 N   0  0  0  0  0  0  0  0  0  0  0  0
    2.1189   -5.3501    1.8134 C   0  0  1  0  0  0  0  0  0  0  0  0
    0.8140   -5.2376    1.0529 C   0  0  0  0  0  0  0  0  0  0  0  0
    1.5104   -6.5642    1.1692 C   0  0  0  0  0  0  0  0  0  0  0  0
    2.8651    1.5726   -0.8548 H   0  0  0  0  0  0  0  0  0  0  0  0
    4.4117    0.8247   -0.3400 H   0  0  0  0  0  0  0  0  0  0  0  0
    2.8348    2.7824    1.1128 H   0  0  0  0  0  0  0  0  0  0  0  0
    2.3688    3.6278    2.9269 H   0  0  0  0  0  0  0  0  0  0  0  0
    2.5477    5.2922    4.7654 H   0  0  0  0  0  0  0  0  0  0  0  0
    6.5617    3.9968    5.5945 H   0  0  0  0  0  0  0  0  0  0  0  0
    6.3922    2.2984    3.7292 H   0  0  0  0  0  0  0  0  0  0  0  0
    4.1278   -0.7643    1.5276 H   0  0  0  0  0  0  0  0  0  0  0  0
    1.7210   -2.4405    0.9649 H   0  0  0  0  0  0  0  0  0  0  0  0
    2.4670   -2.4288    2.5720 H   0  0  0  0  0  0  0  0  0  0  0  0
    2.0692   -5.2884    2.9073 H   0  0  0  0  0  0  0  0  0  0  0  0
    0.8404   -4.7327    0.0834 H   0  0  0  0  0  0  0  0  0  0  0  0
   -0.0943   -5.0579    1.6343 H   0  0  0  0  0  0  0  0  0  0  0  0
    2.0213   -6.9685    0.2939 H   0  0  0  0  0  0  0  0  0  0  0  0
    1.0967   -7.3227    1.8382 H   0  0  0  0  0  0  0  0  0  0  0  0
  1  2  2  0
  2  3  1  0
  2 14  1  0
  3  4  1  0
  3 26  1  0
  3 27  1  0
  4  5  1  0
  4 28  1  0
  5  6  2  0
  5  7  1  0
  7  8  2  0
  7 13  1  0
  8  9  1  0
  8 29  1  0
  9 10  2  0
  9 30  1  0
 10 11  1  0
 10 12  1  0
 12 13  2  0
 12 31  1  0
 13 32  1  0
 14 15  1  0
 14 33  1  0
 15 16  1  0
 15 34  1  0
 15 35  1  0
 16 17  2  0
 16 22  1  0
 17 18  1  0
 18 19  1  0
 18 20  1  0
 20 21  2  0
 20 22  1  0
 22 23  1  0
 23 24  1  0
 23 25  1  0
 23 36  1  1
 24 25  1  0
 24 37  1  0
 24 38  1  0
 25 39  1  0
 25 40  1  0
M  END

