
     RDKit          3D

 36 37  0  0  0  0  0  0  0  0999 V2000
    1.6803   -0.1554    0.3459 C   0  0  0  0  0  0  0  0  0  0  0  0
    3.1242   -0.0711    0.1737 N   0  0  0  0  0  0  0  0  0  0  0  0
    3.9117   -1.0040    0.9777 C   0  0  0  0  0  0  0  0  0  0  0  0
    3.7447   -0.8174    2.4801 C   0  0  0  0  0  0  0  0  0  0  0  0
    3.9903    0.4311    3.0765 C   0  0  0  0  0  0  0  0  0  0  0  0
    3.8656    0.5951    4.4577 C   0  0  0  0  0  0  0  0  0  0  0  0
    3.4960   -0.4855    5.2668 C   0  0  0  0  0  0  0  0  0  0  0  0
    3.2495   -1.7305    4.6839 C   0  0  0  0  0  0  0  0  0  0  0  0
    3.3708   -1.8910    3.2992 C   0  0  0  0  0  0  0  0  0  0  0  0
    3.6244    1.1093   -0.3470 C   0  0  0  0  0  0  0  0  0  0  0  0
    2.8758    2.0738   -0.5218 O   0  0  0  0  0  0  0  0  0  0  0  0
    5.0689    1.1791   -0.7185 C   0  0  0  0  0  0  0  0  0  0  0  0
    5.7248    0.1249   -1.3762 C   0  0  0  0  0  0  0  0  0  0  0  0
    7.0520    0.2026   -1.7774 C   0  0  0  0  0  0  0  0  0  0  0  0
    7.7885    1.3806   -1.5166 C   0  0  0  0  0  0  0  0  0  0  0  0
    9.1022    1.4925   -1.9327 N   0  0  0  0  0  0  0  0  0  0  0  0
    7.1438    2.4548   -0.8833 C   0  0  0  0  0  0  0  0  0  0  0  0
    5.7918    2.3905   -0.5020 C   0  0  0  0  0  0  0  0  0  0  0  0
    5.1880    3.4590    0.1251 N   0  0  0  0  0  0  0  0  0  0  0  0
    1.3720   -1.2121    0.3021 H   0  0  0  0  0  0  0  0  0  0  0  0
    1.1858    0.4083   -0.4537 H   0  0  0  0  0  0  0  0  0  0  0  0
    1.3475    0.2639    1.3117 H   0  0  0  0  0  0  0  0  0  0  0  0
    4.9703   -0.8781    0.7214 H   0  0  0  0  0  0  0  0  0  0  0  0
    3.6339   -2.0375    0.7073 H   0  0  0  0  0  0  0  0  0  0  0  0
    4.2797    1.2848    2.4567 H   0  0  0  0  0  0  0  0  0  0  0  0
    4.0602    1.5728    4.9065 H   0  0  0  0  0  0  0  0  0  0  0  0
    3.3989   -0.3549    6.3476 H   0  0  0  0  0  0  0  0  0  0  0  0
    2.9565   -2.5802    5.3063 H   0  0  0  0  0  0  0  0  0  0  0  0
    3.1717   -2.8679    2.8480 H   0  0  0  0  0  0  0  0  0  0  0  0
    5.1605   -0.7843   -1.5987 H   0  0  0  0  0  0  0  0  0  0  0  0
    7.5229   -0.6325   -2.3018 H   0  0  0  0  0  0  0  0  0  0  0  0
    9.6007    0.6319   -2.1222 H   0  0  0  0  0  0  0  0  0  0  0  0
    9.6698    2.2083   -1.4957 H   0  0  0  0  0  0  0  0  0  0  0  0
    7.6994    3.3798   -0.7003 H   0  0  0  0  0  0  0  0  0  0  0  0
    5.6657    4.3493    0.0578 H   0  0  0  0  0  0  0  0  0  0  0  0
    4.1774    3.4951    0.0017 H   0  0  0  0  0  0  0  0  0  0  0  0
  1  2  1  0
  1 20  1  0
  1 21  1  0
  1 22  1  0
  2  3  1  0
  2 10  1  0
  3  4  1  0
  3 23  1  0
  3 24  1  0
  4  5  2  0
  4  9  1  0
  5  6  1  0
  5 25  1  0
  6  7  2  0
  6 26  1  0
  7  8  1  0
  7 27  1  0
  8  9  2  0
  8 28  1  0
  9 29  1  0
 10 11  2  0
 10 12  1  0
 12 13  2  0
 12 18  1  0
 13 14  1  0
 13 30  1  0
 14 15  2  0
 14 31  1  0
 15 16  1  0
 15 17  1  0
 16 32  1  0
 16 33  1  0
 17 18  2  0
 17 34  1  0
 18 19  1  0
 19 35  1  0
 19 36  1  0
M  END

