
     RDKit          3D

 55 58  0  0  0  0  0  0  0  0999 V2000
   -0.2713    2.5711    1.2482 C   0  0  0  0  0  0  0  0  0  0  0  0
   -0.1693    1.3063    0.6292 O   0  0  0  0  0  0  0  0  0  0  0  0
    0.4245    0.2862    1.2889 C   0  0  0  0  0  0  0  0  0  0  0  0
    0.4909   -0.9409    0.6031 C   0  0  0  0  0  0  0  0  0  0  0  0
    1.0832   -2.0453    1.1996 C   0  0  0  0  0  0  0  0  0  0  0  0
    1.6264   -1.9659    2.4977 C   0  0  0  0  0  0  0  0  0  0  0  0
    2.2580   -3.1114    3.1575 C   0  0  0  0  0  0  0  0  0  0  0  0
    2.7707   -3.0753    4.3595 N   0  0  0  0  0  0  0  0  0  0  0  0
    3.2666   -4.2501    4.7959 N   0  0  0  0  0  0  0  0  0  0  0  0
    3.1622   -5.2061    3.9232 C   0  0  0  0  0  0  0  0  0  0  0  0
    3.6060   -6.5096    4.1117 N   0  0  0  0  0  0  0  0  0  0  0  0
    4.8425   -6.8575    4.6565 C   0  0  0  0  0  0  0  0  0  0  0  0
    5.7015   -6.0505    4.9277 O   0  0  0  0  0  0  0  0  0  0  0  0
    5.0453   -8.3361    4.8633 C   0  0  0  0  0  0  0  0  0  0  0  0
    6.3622   -8.7855    5.0432 C   0  0  0  0  0  0  0  0  0  0  0  0
    6.6299  -10.1355    5.2498 C   0  0  0  0  0  0  0  0  0  0  0  0
    5.5828  -11.0649    5.2929 C   0  0  0  0  0  0  0  0  0  0  0  0
    5.9860  -12.7362    5.5519 Cl  0  0  0  0  0  0  0  0  0  0  0  0
    4.2576  -10.6243    5.1401 C   0  0  0  0  0  0  0  0  0  0  0  0
    2.8210  -11.7311    5.1311 S   0  0  1  0  0  0  0  0  0  0  0  0
    1.6532  -10.8502    4.9958 O   0  0  0  0  0  0  0  0  0  0  0  0
    3.0633  -12.7999    4.1645 O   0  0  0  0  0  0  0  0  0  0  0  0
    2.8505  -12.4074    6.6677 N   0  0  0  0  0  0  0  0  0  0  0  0
    2.7156  -13.8681    6.7800 C   0  0  0  0  0  0  0  0  0  0  0  0
    3.2316  -14.2960    8.1622 C   0  0  0  0  0  0  0  0  0  0  0  0
    2.6018  -13.5897    9.2692 N   0  0  0  0  0  0  0  0  0  0  0  0
    1.2794  -14.0607    9.6396 C   0  0  0  0  0  0  0  0  0  0  0  0
    2.7278  -12.1511    9.0954 C   0  0  0  0  0  0  0  0  0  0  0  0
    2.2041  -11.6399    7.7421 C   0  0  0  0  0  0  0  0  0  0  0  0
    4.0011   -9.2670    4.9248 C   0  0  0  0  0  0  0  0  0  0  0  0
    2.3996   -4.7073    2.4146 S   0  0  0  0  0  0  0  0  0  0  0  0
    1.5551   -0.7356    3.1741 C   0  0  0  0  0  0  0  0  0  0  0  0
    0.9640    0.3801    2.5839 C   0  0  0  0  0  0  0  0  0  0  0  0
   -0.7799    3.2288    0.5309 H   0  0  0  0  0  0  0  0  0  0  0  0
    0.7219    2.9947    1.4810 H   0  0  0  0  0  0  0  0  0  0  0  0
   -0.8668    2.5259    2.1774 H   0  0  0  0  0  0  0  0  0  0  0  0
    0.0686   -0.9976   -0.4018 H   0  0  0  0  0  0  0  0  0  0  0  0
    1.1238   -2.9864    0.6447 H   0  0  0  0  0  0  0  0  0  0  0  0
    3.0413   -7.2476    3.7079 H   0  0  0  0  0  0  0  0  0  0  0  0
    7.1699   -8.0517    5.0197 H   0  0  0  0  0  0  0  0  0  0  0  0
    7.6542  -10.4883    5.3808 H   0  0  0  0  0  0  0  0  0  0  0  0
    3.3042  -14.3391    5.9830 H   0  0  0  0  0  0  0  0  0  0  0  0
    1.6607  -14.1762    6.6428 H   0  0  0  0  0  0  0  0  0  0  0  0
    4.3179  -14.0989    8.1948 H   0  0  0  0  0  0  0  0  0  0  0  0
    3.0859  -15.3809    8.2882 H   0  0  0  0  0  0  0  0  0  0  0  0
    1.3221  -15.1390    9.8629 H   0  0  0  0  0  0  0  0  0  0  0  0
    0.4854  -13.9136    8.8748 H   0  0  0  0  0  0  0  0  0  0  0  0
    0.9489  -13.5469   10.5569 H   0  0  0  0  0  0  0  0  0  0  0  0
    3.7969  -11.8827    9.1718 H   0  0  0  0  0  0  0  0  0  0  0  0
    2.1979  -11.6334    9.9110 H   0  0  0  0  0  0  0  0  0  0  0  0
    2.4495  -10.5738    7.6274 H   0  0  0  0  0  0  0  0  0  0  0  0
    1.1032  -11.7284    7.6774 H   0  0  0  0  0  0  0  0  0  0  0  0
    2.9538   -8.9737    4.8347 H   0  0  0  0  0  0  0  0  0  0  0  0
    1.9750   -0.6687    4.1790 H   0  0  0  0  0  0  0  0  0  0  0  0
    0.9281    1.3168    3.1402 H   0  0  0  0  0  0  0  0  0  0  0  0
  1  2  1  0
  1 34  1  0
  1 35  1  0
  1 36  1  0
  2  3  1  0
  3  4  2  0
  3 33  1  0
  4  5  1  0
  4 37  1  0
  5  6  2  0
  5 38  1  0
  6  7  1  0
  6 32  1  0
  7  8  2  0
  7 31  1  0
  8  9  1  0
  9 10  2  0
 10 11  1  0
 10 31  1  0
 11 12  1  0
 11 39  1  0
 12 13  2  0
 12 14  1  0
 14 15  2  0
 14 30  1  0
 15 16  1  0
 15 40  1  0
 16 17  2  0
 16 41  1  0
 17 18  1  0
 17 19  1  0
 20 19  1  1
 19 30  2  0
 20 21  2  0
 20 22  2  0
 20 23  1  0
 23 24  1  0
 23 29  1  0
 24 25  1  0
 24 42  1  0
 24 43  1  0
 25 26  1  0
 25 44  1  0
 25 45  1  0
 26 27  1  0
 26 28  1  0
 27 46  1  0
 27 47  1  0
 27 48  1  0
 28 29  1  0
 28 49  1  0
 28 50  1  0
 29 51  1  0
 29 52  1  0
 30 53  1  0
 32 33  2  0
 32 54  1  0
 33 55  1  0
M  END

