
     RDKit          3D

 43 44  0  0  0  0  0  0  0  0999 V2000
    1.7035   -0.1504    1.1767 C   0  0  0  0  0  0  0  0  0  0  0  0
    3.0678   -0.2654    0.5652 C   0  0  0  0  0  0  0  0  0  0  0  0
    3.8082    0.8744    0.3676 N   0  0  0  0  0  0  0  0  0  0  0  0
    4.9663    0.6265   -0.1659 C   0  0  0  0  0  0  0  0  0  0  0  0
    5.9809    1.6889   -0.4773 C   0  0  0  0  0  0  0  0  0  0  0  0
    7.0825    1.0838   -1.1097 O   0  0  0  0  0  0  0  0  0  0  0  0
    8.1531    1.8461   -1.4773 C   0  0  0  0  0  0  0  0  0  0  0  0
    8.2394    3.2317   -1.2828 C   0  0  0  0  0  0  0  0  0  0  0  0
    9.3845    3.9234   -1.6980 C   0  0  0  0  0  0  0  0  0  0  0  0
   10.4261    3.2287   -2.3003 C   0  0  0  0  0  0  0  0  0  0  0  0
   11.5230    3.8934   -2.6976 F   0  0  0  0  0  0  0  0  0  0  0  0
   10.3535    1.8492   -2.5008 C   0  0  0  0  0  0  0  0  0  0  0  0
    9.2162    1.1605   -2.0885 C   0  0  0  0  0  0  0  0  0  0  0  0
    5.2788   -1.0556   -0.4877 S   0  0  0  0  0  0  0  0  0  0  0  0
    3.6981   -1.4341    0.1603 C   0  0  0  0  0  0  0  0  0  0  0  0
    3.1323   -2.8060    0.2509 C   0  0  0  0  0  0  0  0  0  0  0  0
    2.0278   -3.0012    0.7467 O   0  0  0  0  0  0  0  0  0  0  0  0
    3.9051   -3.8247   -0.2406 N   0  0  0  0  0  0  0  0  0  0  0  0
    3.4808   -5.2126   -0.1949 C   0  0  0  0  0  0  0  0  0  0  0  0
    2.8072   -5.7303   -1.5029 C   0  0  1  0  0  0  0  0  0  0  0  0
    3.8165   -5.7232   -2.6601 C   0  0  0  0  0  0  0  0  0  0  0  0
    2.3133   -7.1606   -1.2409 C   0  0  0  0  0  0  0  0  0  0  0  0
    1.6572   -4.9164   -1.9048 N   0  0  0  0  0  0  0  0  0  0  0  0
    1.4671    0.9110    1.3296 H   0  0  0  0  0  0  0  0  0  0  0  0
    1.6559   -0.6813    2.1395 H   0  0  0  0  0  0  0  0  0  0  0  0
    0.9398   -0.6186    0.5393 H   0  0  0  0  0  0  0  0  0  0  0  0
    6.2800    2.1894    0.4642 H   0  0  0  0  0  0  0  0  0  0  0  0
    5.5100    2.4559   -1.1216 H   0  0  0  0  0  0  0  0  0  0  0  0
    7.4289    3.7888   -0.8128 H   0  0  0  0  0  0  0  0  0  0  0  0
    9.4711    5.0023   -1.5556 H   0  0  0  0  0  0  0  0  0  0  0  0
   11.1885    1.3317   -2.9772 H   0  0  0  0  0  0  0  0  0  0  0  0
    9.1288    0.0819   -2.2311 H   0  0  0  0  0  0  0  0  0  0  0  0
    4.8105   -3.6119   -0.6405 H   0  0  0  0  0  0  0  0  0  0  0  0
    2.7600   -5.2988    0.6315 H   0  0  0  0  0  0  0  0  0  0  0  0
    4.3542   -5.8395    0.0534 H   0  0  0  0  0  0  0  0  0  0  0  0
    4.6817   -6.3706   -2.4449 H   0  0  0  0  0  0  0  0  0  0  0  0
    4.1923   -4.7036   -2.8516 H   0  0  0  0  0  0  0  0  0  0  0  0
    3.3351   -6.0770   -3.5839 H   0  0  0  0  0  0  0  0  0  0  0  0
    3.1381   -7.8265   -0.9395 H   0  0  0  0  0  0  0  0  0  0  0  0
    1.8436   -7.5690   -2.1477 H   0  0  0  0  0  0  0  0  0  0  0  0
    1.5591   -7.1728   -0.4364 H   0  0  0  0  0  0  0  0  0  0  0  0
    1.9661   -3.9766   -2.1559 H   0  0  0  0  0  0  0  0  0  0  0  0
    1.0255   -4.7878   -1.1125 H   0  0  0  0  0  0  0  0  0  0  0  0
  1  2  1  0
  1 24  1  0
  1 25  1  0
  1 26  1  0
  2  3  2  0
  2 15  1  0
  3  4  1  0
  4  5  1  0
  4 14  2  0
  5  6  1  0
  5 27  1  0
  5 28  1  0
  6  7  1  0
  7  8  2  0
  7 13  1  0
  8  9  1  0
  8 29  1  0
  9 10  2  0
  9 30  1  0
 10 11  1  0
 10 12  1  0
 12 13  2  0
 12 31  1  0
 13 32  1  0
 14 15  1  0
 15 16  2  0
 16 17  1  0
 16 18  1  0
 18 19  1  0
 18 33  1  0
 19 20  1  0
 19 34  1  0
 19 35  1  0
 20 21  1  0
 20 22  1  0
 20 23  1  6
 21 36  1  0
 21 37  1  0
 21 38  1  0
 22 39  1  0
 22 40  1  0
 22 41  1  0
 23 42  1  0
 23 43  1  0
M  CHG  2  14   1  17  -1
M  END

