
     RDKit          3D

 74 79  0  0  0  0  0  0  0  0999 V2000
    1.9072    0.2143    1.0201 C   0  0  0  0  0  0  0  0  0  0  0  0
    3.2561    0.0060    0.6193 O   0  0  0  0  0  0  0  0  0  0  0  0
    3.4975   -0.8596   -0.4039 C   0  0  0  0  0  0  0  0  0  0  0  0
    4.1868   -0.3871   -1.5226 C   0  0  0  0  0  0  0  0  0  0  0  0
    4.5445   -1.2248   -2.5951 C   0  0  0  0  0  0  0  0  0  0  0  0
    5.3039   -0.7074   -3.7632 C   0  0  0  0  0  0  0  0  0  0  0  0
    5.1567    0.6414   -4.2011 C   0  0  0  0  0  0  0  0  0  0  0  0
    5.9132    1.1344   -5.2393 C   0  0  0  0  0  0  0  0  0  0  0  0
    6.8476    0.3124   -5.9283 C   0  0  0  0  0  0  0  0  0  0  0  0
    7.6406    0.8896   -6.8705 N   0  0  0  0  0  0  0  0  0  0  0  0
    8.5392    0.1254   -7.4435 C   0  0  0  0  0  0  0  0  0  0  0  0
    8.7073   -1.2738   -7.2292 C   0  0  0  0  0  0  0  0  0  0  0  0
    9.6124   -1.9965   -8.1825 C   0  0  0  0  0  0  0  0  0  0  0  0
    9.3273   -3.0889   -8.6486 O   0  0  0  0  0  0  0  0  0  0  0  0
   10.8786   -1.3057   -8.5986 C   0  0  1  0  0  0  0  0  0  0  0  0
   12.0277   -2.1866   -9.0633 C   0  0  0  0  0  0  0  0  0  0  0  0
   11.2753   -1.3894  -10.0691 C   0  0  0  0  0  0  0  0  0  0  0  0
    7.8732   -1.9165   -6.2904 C   0  0  0  0  0  0  0  0  0  0  0  0
    7.9367   -3.2769   -6.0238 N   0  0  0  0  0  0  0  0  0  0  0  0
    6.7356   -4.1066   -5.9302 C   0  0  0  0  0  0  0  0  0  0  0  0
    6.8832   -5.3742   -6.7784 C   0  0  0  0  0  0  0  0  0  0  0  0
    8.1071   -6.2103   -6.3555 C   0  0  2  0  0  0  0  0  0  0  0  0
    7.9887   -6.8600   -4.9614 C   0  0  0  0  0  0  0  0  0  0  0  0
    6.8143   -7.8298   -4.8000 C   0  0  0  0  0  0  0  0  0  0  0  0
    6.8523   -8.5721   -3.5538 N   0  0  0  0  0  0  0  0  0  0  0  0
    6.6368   -7.7973   -2.3363 C   0  0  0  0  0  0  0  0  0  0  0  0
    6.4455   -8.8640   -1.2399 C   0  0  0  0  0  0  0  0  0  0  0  0
    5.9989  -10.1368   -2.0108 C   0  0  0  0  0  0  0  0  0  0  0  0
    5.9018   -9.6735   -3.4729 C   0  0  0  0  0  0  0  0  0  0  0  0
    9.3506   -5.3060   -6.4762 C   0  0  0  0  0  0  0  0  0  0  0  0
    9.1937   -3.9714   -5.7346 C   0  0  0  0  0  0  0  0  0  0  0  0
    6.9467   -1.0700   -5.5653 C   0  0  0  0  0  0  0  0  0  0  0  0
    6.1941   -1.5238   -4.4499 C   0  0  0  0  0  0  0  0  0  0  0  0
    4.1656   -2.5763   -2.5235 C   0  0  0  0  0  0  0  0  0  0  0  0
    3.4849   -3.0510   -1.4061 C   0  0  0  0  0  0  0  0  0  0  0  0
    3.0271   -4.7502   -1.3026 Cl  0  0  0  0  0  0  0  0  0  0  0  0
    3.1437   -2.2268   -0.3214 C   0  0  0  0  0  0  0  0  0  0  0  0
    2.5125   -2.6873    0.7802 O   0  0  0  0  0  0  0  0  0  0  0  0
    1.9287    1.0122    1.7752 H   0  0  0  0  0  0  0  0  0  0  0  0
    1.4630   -0.6914    1.4596 H   0  0  0  0  0  0  0  0  0  0  0  0
    1.2878    0.5470    0.1674 H   0  0  0  0  0  0  0  0  0  0  0  0
    4.4683    0.6667   -1.5124 H   0  0  0  0  0  0  0  0  0  0  0  0
    4.4360    1.2936   -3.7029 H   0  0  0  0  0  0  0  0  0  0  0  0
    5.8324    2.1735   -5.5642 H   0  0  0  0  0  0  0  0  0  0  0  0
    9.1659    0.6110   -8.2013 H   0  0  0  0  0  0  0  0  0  0  0  0
   11.1420   -0.3921   -8.0627 H   0  0  0  0  0  0  0  0  0  0  0  0
   11.8400   -3.2629   -9.0332 H   0  0  0  0  0  0  0  0  0  0  0  0
   13.0363   -1.8714   -8.7834 H   0  0  0  0  0  0  0  0  0  0  0  0
   10.5763   -1.9258  -10.7165 H   0  0  0  0  0  0  0  0  0  0  0  0
   11.7429   -0.5052  -10.5104 H   0  0  0  0  0  0  0  0  0  0  0  0
    5.8749   -3.5213   -6.2802 H   0  0  0  0  0  0  0  0  0  0  0  0
    6.5230   -4.3975   -4.8817 H   0  0  0  0  0  0  0  0  0  0  0  0
    7.0044   -5.0748   -7.8321 H   0  0  0  0  0  0  0  0  0  0  0  0
    5.9515   -5.9587   -6.7096 H   0  0  0  0  0  0  0  0  0  0  0  0
    8.2208   -7.0317   -7.0856 H   0  0  0  0  0  0  0  0  0  0  0  0
    7.9325   -6.0837   -4.1801 H   0  0  0  0  0  0  0  0  0  0  0  0
    8.9154   -7.4229   -4.7562 H   0  0  0  0  0  0  0  0  0  0  0  0
    6.8421   -8.5603   -5.6279 H   0  0  0  0  0  0  0  0  0  0  0  0
    5.8455   -7.2841   -4.9030 H   0  0  0  0  0  0  0  0  0  0  0  0
    5.7232   -7.1596   -2.4176 H   0  0  0  0  0  0  0  0  0  0  0  0
    7.4830   -7.1238   -2.1301 H   0  0  0  0  0  0  0  0  0  0  0  0
    5.7057   -8.5393   -0.4929 H   0  0  0  0  0  0  0  0  0  0  0  0
    7.3889   -9.0455   -0.7038 H   0  0  0  0  0  0  0  0  0  0  0  0
    5.0439  -10.5448   -1.6472 H   0  0  0  0  0  0  0  0  0  0  0  0
    6.7537  -10.9313   -1.9116 H   0  0  0  0  0  0  0  0  0  0  0  0
    4.8623   -9.3341   -3.7008 H   0  0  0  0  0  0  0  0  0  0  0  0
    6.1510  -10.4635   -4.2005 H   0  0  0  0  0  0  0  0  0  0  0  0
    9.5321   -5.0927   -7.5383 H   0  0  0  0  0  0  0  0  0  0  0  0
   10.2416   -5.8225   -6.0798 H   0  0  0  0  0  0  0  0  0  0  0  0
   10.0343   -3.3059   -5.9701 H   0  0  0  0  0  0  0  0  0  0  0  0
    9.2435   -4.1470   -4.6394 H   0  0  0  0  0  0  0  0  0  0  0  0
    6.3611   -2.5337   -4.0852 H   0  0  0  0  0  0  0  0  0  0  0  0
    4.3780   -3.2645   -3.3411 H   0  0  0  0  0  0  0  0  0  0  0  0
    2.3564   -3.6394    0.6646 H   0  0  0  0  0  0  0  0  0  0  0  0
  1  2  1  0
  1 39  1  0
  1 40  1  0
  1 41  1  0
  2  3  1  0
  3  4  2  0
  3 37  1  0
  4  5  1  0
  4 42  1  0
  5  6  1  0
  5 34  2  0
  6  7  2  0
  6 33  1  0
  7  8  1  0
  7 43  1  0
  8  9  2  0
  8 44  1  0
  9 10  1  0
  9 32  1  0
 10 11  2  0
 11 12  1  0
 11 45  1  0
 12 13  1  0
 12 18  2  0
 13 14  2  0
 13 15  1  0
 15 16  1  0
 15 17  1  0
 15 46  1  1
 16 17  1  0
 16 47  1  0
 16 48  1  0
 17 49  1  0
 17 50  1  0
 18 19  1  0
 18 32  1  0
 19 20  1  0
 19 31  1  0
 20 21  1  0
 20 51  1  0
 20 52  1  0
 21 22  1  0
 21 53  1  0
 21 54  1  0
 22 23  1  0
 22 30  1  0
 22 55  1  6
 23 24  1  0
 23 56  1  0
 23 57  1  0
 24 25  1  0
 24 58  1  0
 24 59  1  0
 25 26  1  0
 25 29  1  0
 26 27  1  0
 26 60  1  0
 26 61  1  0
 27 28  1  0
 27 62  1  0
 27 63  1  0
 28 29  1  0
 28 64  1  0
 28 65  1  0
 29 66  1  0
 29 67  1  0
 30 31  1  0
 30 68  1  0
 30 69  1  0
 31 70  1  0
 31 71  1  0
 32 33  2  0
 33 72  1  0
 34 35  1  0
 34 73  1  0
 35 36  1  0
 35 37  2  0
 37 38  1  0
 38 74  1  0
M  END

