
     RDKit          3D

 60 64  0  0  0  0  0  0  0  0999 V2000
    0.7463   -0.0595    1.0279 C   0  0  0  0  0  0  0  0  0  0  0  0
    2.2171    0.0753    0.7226 C   0  0  0  0  0  0  0  0  0  0  0  0
    2.7554    1.2922    0.2700 C   0  0  0  0  0  0  0  0  0  0  0  0
    4.1140    1.4493   -0.0176 C   0  0  0  0  0  0  0  0  0  0  0  0
    4.6088    2.7925   -0.4908 C   0  0  0  0  0  0  0  0  0  0  0  0
    4.9858    0.3370    0.1595 C   0  0  0  0  0  0  0  0  0  0  0  0
    4.4354   -0.8960    0.5967 C   0  0  0  0  0  0  0  0  0  0  0  0
    3.0707   -1.0191    0.8767 C   0  0  0  0  0  0  0  0  0  0  0  0
    5.1794   -2.0165    0.7795 O   0  0  0  0  0  0  0  0  0  0  0  0
    6.4963   -2.1094    0.1846 C   0  0  2  0  0  0  0  0  0  0  0  0
    6.3457   -2.4238   -1.3197 C   0  0  0  0  0  0  0  0  0  0  0  0
    5.6949   -3.7885   -1.5596 C   0  0  0  0  0  0  0  0  0  0  0  0
    6.4184   -4.8453   -0.8575 N   0  0  0  0  0  0  0  0  0  0  0  0
    6.6743   -6.1094   -1.3497 C   0  0  0  0  0  0  0  0  0  0  0  0
    6.9052   -7.0560   -0.6118 O   0  0  0  0  0  0  0  0  0  0  0  0
    6.7099   -6.3049   -2.8463 C   0  0  0  0  0  0  0  0  0  0  0  0
    6.1117   -7.4573   -3.3736 C   0  0  0  0  0  0  0  0  0  0  0  0
    6.1869   -7.7252   -4.7411 C   0  0  0  0  0  0  0  0  0  0  0  0
    6.8870   -6.8615   -5.5831 C   0  0  0  0  0  0  0  0  0  0  0  0
    7.5422   -5.7198   -5.0715 C   0  0  0  0  0  0  0  0  0  0  0  0
    7.4286   -5.4532   -3.7019 C   0  0  0  0  0  0  0  0  0  0  0  0
    8.3348   -4.8013   -5.9941 C   0  0  0  0  0  0  0  0  0  0  0  0
    9.5255   -5.4188   -6.7699 C   0  0  0  0  0  0  0  0  0  0  0  0
    9.1712   -6.3984   -7.9197 C   0  0  0  0  0  0  0  0  0  0  0  0
    8.3509   -7.5264   -7.3234 C   0  0  0  0  0  0  0  0  0  0  0  0
    8.8085   -8.5898   -6.9887 O   0  0  0  0  0  0  0  0  0  0  0  0
    7.0217   -7.1368   -6.9907 N   0  0  0  0  0  0  0  0  0  0  0  0
    6.5033   -4.6315    0.5860 C   0  0  0  0  0  0  0  0  0  0  0  0
    7.1772   -3.2910    0.8884 C   0  0  0  0  0  0  0  0  0  0  0  0
    7.2356   -0.7955    0.4302 C   0  0  0  0  0  0  0  0  0  0  0  0
    6.4503    0.4223   -0.0419 C   0  0  0  0  0  0  0  0  0  0  0  0
    7.0290    1.3901   -0.5045 O   0  0  0  0  0  0  0  0  0  0  0  0
    0.2079    0.8843    0.8605 H   0  0  0  0  0  0  0  0  0  0  0  0
    0.5858   -0.3623    2.0760 H   0  0  0  0  0  0  0  0  0  0  0  0
    0.2795   -0.8340    0.3967 H   0  0  0  0  0  0  0  0  0  0  0  0
    2.0894    2.1493    0.1399 H   0  0  0  0  0  0  0  0  0  0  0  0
    3.7779    3.5119   -0.5342 H   0  0  0  0  0  0  0  0  0  0  0  0
    5.0763    2.7230   -1.4842 H   0  0  0  0  0  0  0  0  0  0  0  0
    5.3934    3.1910    0.1698 H   0  0  0  0  0  0  0  0  0  0  0  0
    2.6983   -1.9896    1.2120 H   0  0  0  0  0  0  0  0  0  0  0  0
    7.3495   -2.4047   -1.7762 H   0  0  0  0  0  0  0  0  0  0  0  0
    5.7509   -1.6394   -1.8145 H   0  0  0  0  0  0  0  0  0  0  0  0
    5.6501   -4.0104   -2.6314 H   0  0  0  0  0  0  0  0  0  0  0  0
    4.6522   -3.7590   -1.1908 H   0  0  0  0  0  0  0  0  0  0  0  0
    5.5962   -8.1437   -2.6991 H   0  0  0  0  0  0  0  0  0  0  0  0
    5.7193   -8.6114   -5.1731 H   0  0  0  0  0  0  0  0  0  0  0  0
    7.9391   -4.5797   -3.2871 H   0  0  0  0  0  0  0  0  0  0  0  0
    8.7258   -3.9687   -5.3889 H   0  0  0  0  0  0  0  0  0  0  0  0
    7.6439   -4.3323   -6.7226 H   0  0  0  0  0  0  0  0  0  0  0  0
   10.1865   -5.9400   -6.0578 H   0  0  0  0  0  0  0  0  0  0  0  0
   10.1158   -4.5922   -7.1985 H   0  0  0  0  0  0  0  0  0  0  0  0
   10.0887   -6.8030   -8.3699 H   0  0  0  0  0  0  0  0  0  0  0  0
    8.6021   -5.8666   -8.7027 H   0  0  0  0  0  0  0  0  0  0  0  0
    6.7513   -6.3125   -7.5246 H   0  0  0  0  0  0  0  0  0  0  0  0
    7.0634   -5.4688    1.0189 H   0  0  0  0  0  0  0  0  0  0  0  0
    5.4905   -4.6462    1.0285 H   0  0  0  0  0  0  0  0  0  0  0  0
    8.2295   -3.3255    0.5618 H   0  0  0  0  0  0  0  0  0  0  0  0
    7.1707   -3.1092    1.9749 H   0  0  0  0  0  0  0  0  0  0  0  0
    8.2203   -0.7847   -0.0577 H   0  0  0  0  0  0  0  0  0  0  0  0
    7.4021   -0.6781    1.5168 H   0  0  0  0  0  0  0  0  0  0  0  0
  1  2  1  0
  1 33  1  0
  1 34  1  0
  1 35  1  0
  2  3  2  0
  2  8  1  0
  3  4  1  0
  3 36  1  0
  4  5  1  0
  4  6  2  0
  5 37  1  0
  5 38  1  0
  5 39  1  0
  6  7  1  0
  6 31  1  0
  7  8  2  0
  7  9  1  0
  8 40  1  0
 10  9  1  1
 10 11  1  0
 10 29  1  0
 10 30  1  0
 11 12  1  0
 11 41  1  0
 11 42  1  0
 12 13  1  0
 12 43  1  0
 12 44  1  0
 13 14  1  0
 13 28  1  0
 14 15  2  0
 14 16  1  0
 16 17  2  0
 16 21  1  0
 17 18  1  0
 17 45  1  0
 18 19  2  0
 18 46  1  0
 19 20  1  0
 19 27  1  0
 20 21  2  0
 20 22  1  0
 21 47  1  0
 22 23  1  0
 22 48  1  0
 22 49  1  0
 23 24  1  0
 23 50  1  0
 23 51  1  0
 24 25  1  0
 24 52  1  0
 24 53  1  0
 25 26  2  0
 25 27  1  0
 27 54  1  0
 28 29  1  0
 28 55  1  0
 28 56  1  0
 29 57  1  0
 29 58  1  0
 30 31  1  0
 30 59  1  0
 30 60  1  0
 31 32  2  0
M  END

