
     RDKit          3D

 59 62  0  0  0  0  0  0  0  0999 V2000
    9.8183    3.0930   -1.2633 C   0  0  0  0  0  0  0  0  0  0  0  0
    9.7376    3.4479   -2.7391 C   0  0  0  0  0  0  0  0  0  0  0  0
   10.5662    4.1838   -3.2440 O   0  0  0  0  0  0  0  0  0  0  0  0
    8.6216    2.8740   -3.5554 C   0  0  0  0  0  0  0  0  0  0  0  0
    7.6415    2.0134   -3.0334 C   0  0  0  0  0  0  0  0  0  0  0  0
    6.6190    1.4986   -3.8297 C   0  0  0  0  0  0  0  0  0  0  0  0
    6.5582    1.8453   -5.1929 C   0  0  0  0  0  0  0  0  0  0  0  0
    5.5702    1.3816   -6.0695 N   0  0  0  0  0  0  0  0  0  0  0  0
    4.5571    0.4952   -5.8219 C   0  0  0  0  0  0  0  0  0  0  0  0
    4.3094   -0.0260   -4.7495 O   0  0  0  0  0  0  0  0  0  0  0  0
    3.6841    0.1975   -7.0503 C   0  0  0  0  0  0  0  0  0  0  0  0
    4.4153   -0.9798   -8.2632 S   0  0  0  0  0  0  0  0  0  0  0  0
    5.3752    0.1320   -9.2329 C   0  0  0  0  0  0  0  0  0  0  0  0
    5.6478    1.3871   -8.9513 N   0  0  0  0  0  0  0  0  0  0  0  0
    6.4419    1.8855   -9.9477 N   0  0  0  0  0  0  0  0  0  0  0  0
    6.6455    0.9301  -10.8159 C   0  0  0  0  0  0  0  0  0  0  0  0
    7.5150    1.0545  -12.0271 C   0  0  0  0  0  0  0  0  0  0  0  0
    8.8871    0.6943  -11.7064 N   0  0  0  0  0  0  0  0  0  0  0  0
    9.8835    0.6936  -12.6926 C   0  0  0  0  0  0  0  0  0  0  0  0
    9.5990    0.6886  -14.0685 C   0  0  0  0  0  0  0  0  0  0  0  0
   10.6361    0.6352  -15.0072 C   0  0  0  0  0  0  0  0  0  0  0  0
   11.9817    0.5980  -14.6260 C   0  0  0  0  0  0  0  0  0  0  0  0
   13.0985    0.5617  -15.6411 C   0  0  0  0  0  0  0  0  0  0  0  0
   12.2559    0.6128  -13.2459 C   0  0  0  0  0  0  0  0  0  0  0  0
   11.2382    0.6579  -12.2995 C   0  0  0  0  0  0  0  0  0  0  0  0
    5.9851   -0.2253  -10.4142 N   0  0  0  0  0  0  0  0  0  0  0  0
    5.9423   -1.4929  -11.0779 C   0  0  0  0  0  0  0  0  0  0  0  0
    7.1350   -2.1726  -11.3551 C   0  0  0  0  0  0  0  0  0  0  0  0
    7.0974   -3.4046  -12.0089 C   0  0  0  0  0  0  0  0  0  0  0  0
    5.8647   -3.9577  -12.3701 C   0  0  0  0  0  0  0  0  0  0  0  0
    5.8149   -5.5022  -13.1771 Cl  0  0  0  0  0  0  0  0  0  0  0  0
    4.6700   -3.2836  -12.0948 C   0  0  0  0  0  0  0  0  0  0  0  0
    4.7108   -2.0453  -11.4544 C   0  0  0  0  0  0  0  0  0  0  0  0
    7.5389    2.7105   -5.7267 C   0  0  0  0  0  0  0  0  0  0  0  0
    8.5490    3.2123   -4.9199 C   0  0  0  0  0  0  0  0  0  0  0  0
   10.6896    3.5984   -0.8277 H   0  0  0  0  0  0  0  0  0  0  0  0
    9.9184    2.0046   -1.1220 H   0  0  0  0  0  0  0  0  0  0  0  0
    8.9075    3.4086   -0.7292 H   0  0  0  0  0  0  0  0  0  0  0  0
    7.6643    1.7283   -1.9796 H   0  0  0  0  0  0  0  0  0  0  0  0
    5.8669    0.8311   -3.4160 H   0  0  0  0  0  0  0  0  0  0  0  0
    5.6543    1.6840   -7.0510 H   0  0  0  0  0  0  0  0  0  0  0  0
    3.3990    1.1104   -7.5930 H   0  0  0  0  0  0  0  0  0  0  0  0
    2.7863   -0.3171   -6.6859 H   0  0  0  0  0  0  0  0  0  0  0  0
    7.4180    2.0926  -12.3999 H   0  0  0  0  0  0  0  0  0  0  0  0
    7.1384    0.3860  -12.8167 H   0  0  0  0  0  0  0  0  0  0  0  0
    9.1957    1.0978  -10.8262 H   0  0  0  0  0  0  0  0  0  0  0  0
    8.5690    0.7268  -14.4259 H   0  0  0  0  0  0  0  0  0  0  0  0
   10.3796    0.6302  -16.0707 H   0  0  0  0  0  0  0  0  0  0  0  0
   12.7116    0.4173  -16.6610 H   0  0  0  0  0  0  0  0  0  0  0  0
   13.8093   -0.2553  -15.4329 H   0  0  0  0  0  0  0  0  0  0  0  0
   13.6796    1.5003  -15.6372 H   0  0  0  0  0  0  0  0  0  0  0  0
   13.2948    0.5872  -12.9031 H   0  0  0  0  0  0  0  0  0  0  0  0
   11.4864    0.6598  -11.2338 H   0  0  0  0  0  0  0  0  0  0  0  0
    8.0896   -1.7220  -11.0767 H   0  0  0  0  0  0  0  0  0  0  0  0
    8.0213   -3.9391  -12.2343 H   0  0  0  0  0  0  0  0  0  0  0  0
    3.7165   -3.7244  -12.3889 H   0  0  0  0  0  0  0  0  0  0  0  0
    3.7839   -1.5092  -11.2445 H   0  0  0  0  0  0  0  0  0  0  0  0
    7.4949    2.9794   -6.7858 H   0  0  0  0  0  0  0  0  0  0  0  0
    9.3110    3.8814   -5.3246 H   0  0  0  0  0  0  0  0  0  0  0  0
  1  2  1  0
  1 36  1  0
  1 37  1  0
  1 38  1  0
  2  3  2  0
  2  4  1  0
  4  5  2  0
  4 35  1  0
  5  6  1  0
  5 39  1  0
  6  7  2  0
  6 40  1  0
  7  8  1  0
  7 34  1  0
  8  9  1  0
  8 41  1  0
  9 10  2  0
  9 11  1  0
 11 12  1  0
 11 42  1  0
 11 43  1  0
 12 13  1  0
 13 14  2  0
 13 26  1  0
 14 15  1  0
 15 16  2  0
 16 17  1  0
 16 26  1  0
 17 18  1  0
 17 44  1  0
 17 45  1  0
 18 19  1  0
 18 46  1  0
 19 20  2  0
 19 25  1  0
 20 21  1  0
 20 47  1  0
 21 22  2  0
 21 48  1  0
 22 23  1  0
 22 24  1  0
 23 49  1  0
 23 50  1  0
 23 51  1  0
 24 25  2  0
 24 52  1  0
 25 53  1  0
 26 27  1  0
 27 28  2  0
 27 33  1  0
 28 29  1  0
 28 54  1  0
 29 30  2  0
 29 55  1  0
 30 31  1  0
 30 32  1  0
 32 33  2  0
 32 56  1  0
 33 57  1  0
 34 35  2  0
 34 58  1  0
 35 59  1  0
M  END

