
     RDKit          3D

 41 42  0  0  0  0  0  0  0  0999 V2000
    4.3371    1.9646    2.7080 C   0  0  0  0  0  0  0  0  0  0  0  0
    3.9269    0.5527    2.3504 C   0  0  0  0  0  0  0  0  0  0  0  0
    2.6755    0.0793    2.7805 C   0  0  0  0  0  0  0  0  0  0  0  0
    2.2642   -1.2138    2.4670 C   0  0  0  0  0  0  0  0  0  0  0  0
    3.0850   -2.0558    1.7180 C   0  0  0  0  0  0  0  0  0  0  0  0
    4.3472   -1.6095    1.2806 C   0  0  0  0  0  0  0  0  0  0  0  0
    5.2178   -2.4406    0.5757 N   0  0  0  0  0  0  0  0  0  0  0  0
    4.8452   -3.7245   -0.0016 C   0  0  1  0  0  0  0  0  0  0  0  0
    4.0663   -3.6137   -1.3147 C   0  0  0  0  0  0  0  0  0  0  0  0
    6.1414   -4.5441   -0.2047 C   0  0  0  0  0  0  0  0  0  0  0  0
    6.5807   -4.7386   -1.3284 O   0  0  0  0  0  0  0  0  0  0  0  0
    6.7738   -5.0229    0.9163 N   0  0  0  0  0  0  0  0  0  0  0  0
    6.4114   -4.7650    2.3065 C   0  0  0  0  0  0  0  0  0  0  0  0
    6.4729   -6.0681    3.1066 C   0  0  0  0  0  0  0  0  0  0  0  0
    7.7264   -6.7026    2.9767 O   0  0  0  0  0  0  0  0  0  0  0  0
    8.0272   -7.0000    1.6264 C   0  0  0  0  0  0  0  0  0  0  0  0
    8.0398   -5.7389    0.7671 C   0  0  0  0  0  0  0  0  0  0  0  0
    4.7734   -0.2892    1.6015 C   0  0  0  0  0  0  0  0  0  0  0  0
    6.1369    0.1601    1.1317 C   0  0  0  0  0  0  0  0  0  0  0  0
    3.5455    2.4658    3.2833 H   0  0  0  0  0  0  0  0  0  0  0  0
    4.5341    2.5779    1.8128 H   0  0  0  0  0  0  0  0  0  0  0  0
    5.2543    1.9872    3.3206 H   0  0  0  0  0  0  0  0  0  0  0  0
    2.0234    0.7360    3.3615 H   0  0  0  0  0  0  0  0  0  0  0  0
    1.2867   -1.5736    2.7993 H   0  0  0  0  0  0  0  0  0  0  0  0
    2.7336   -3.0571    1.4670 H   0  0  0  0  0  0  0  0  0  0  0  0
    5.9411   -1.9597    0.0542 H   0  0  0  0  0  0  0  0  0  0  0  0
    4.2234   -4.2570    0.7342 H   0  0  0  0  0  0  0  0  0  0  0  0
    4.6952   -3.1593   -2.0934 H   0  0  0  0  0  0  0  0  0  0  0  0
    3.1663   -2.9980   -1.1699 H   0  0  0  0  0  0  0  0  0  0  0  0
    3.7610   -4.6070   -1.6775 H   0  0  0  0  0  0  0  0  0  0  0  0
    5.4101   -4.3268    2.3806 H   0  0  0  0  0  0  0  0  0  0  0  0
    7.1197   -4.0359    2.7436 H   0  0  0  0  0  0  0  0  0  0  0  0
    5.6606   -6.7444    2.7653 H   0  0  0  0  0  0  0  0  0  0  0  0
    6.3233   -5.8627    4.1776 H   0  0  0  0  0  0  0  0  0  0  0  0
    7.2867   -7.7185    1.2177 H   0  0  0  0  0  0  0  0  0  0  0  0
    9.0167   -7.4817    1.6163 H   0  0  0  0  0  0  0  0  0  0  0  0
    8.1757   -5.9744   -0.2960 H   0  0  0  0  0  0  0  0  0  0  0  0
    8.8740   -5.0863    1.0889 H   0  0  0  0  0  0  0  0  0  0  0  0
    6.9274   -0.5310    1.4745 H   0  0  0  0  0  0  0  0  0  0  0  0
    6.3981    1.1609    1.4944 H   0  0  0  0  0  0  0  0  0  0  0  0
    6.2023    0.1949    0.0275 H   0  0  0  0  0  0  0  0  0  0  0  0
  1  2  1  0
  1 20  1  0
  1 21  1  0
  1 22  1  0
  2  3  2  0
  2 18  1  0
  3  4  1  0
  3 23  1  0
  4  5  2  0
  4 24  1  0
  5  6  1  0
  5 25  1  0
  6  7  1  0
  6 18  2  0
  7  8  1  0
  7 26  1  0
  8  9  1  0
  8 10  1  0
  8 27  1  1
  9 28  1  0
  9 29  1  0
  9 30  1  0
 10 11  2  0
 10 12  1  0
 12 13  1  0
 12 17  1  0
 13 14  1  0
 13 31  1  0
 13 32  1  0
 14 15  1  0
 14 33  1  0
 14 34  1  0
 15 16  1  0
 16 17  1  0
 16 35  1  0
 16 36  1  0
 17 37  1  0
 17 38  1  0
 18 19  1  0
 19 39  1  0
 19 40  1  0
 19 41  1  0
M  END

