
     RDKit          3D

 35 36  0  0  0  0  0  0  0  0999 V2000
    1.0321   -0.0553   -0.1260 C   0  0  0  0  0  0  0  0  0  0  0  0
    2.4572    0.0245    0.1445 N   0  0  0  0  0  0  0  0  0  0  0  0
    2.8866   -0.7745    1.2787 C   0  0  0  0  0  0  0  0  0  0  0  0
    4.4123   -0.7830    1.3715 C   0  0  0  0  0  0  0  0  0  0  0  0
    4.9469   -1.8203    2.7681 S   0  0  1  0  0  0  0  0  0  0  0  0
    4.5508   -1.1293    4.0066 O   0  0  0  0  0  0  0  0  0  0  0  0
    4.4896   -3.1919    2.4876 O   0  0  0  0  0  0  0  0  0  0  0  0
    6.7448   -1.8017    2.6782 C   0  0  0  0  0  0  0  0  0  0  0  0
    7.4575   -0.7629    3.3278 C   0  0  0  0  0  0  0  0  0  0  0  0
    8.8337   -0.7506    3.2595 C   0  0  0  0  0  0  0  0  0  0  0  0
    9.5460   -1.7662    2.5591 C   0  0  0  0  0  0  0  0  0  0  0  0
   10.9662   -1.7756    2.4772 C   0  0  0  0  0  0  0  0  0  0  0  0
   11.6523   -2.7707    1.8048 C   0  0  0  0  0  0  0  0  0  0  0  0
   13.1572   -2.7807    1.7185 C   0  0  0  0  0  0  0  0  0  0  0  0
   10.9030   -3.8127    1.1813 C   0  0  0  0  0  0  0  0  0  0  0  0
    9.5284   -3.8393    1.2386 C   0  0  0  0  0  0  0  0  0  0  0  0
    8.8080   -2.8204    1.9240 C   0  0  0  0  0  0  0  0  0  0  0  0
    7.3899   -2.8154    2.0014 C   0  0  0  0  0  0  0  0  0  0  0  0
    0.7750    0.6045   -0.9692 H   0  0  0  0  0  0  0  0  0  0  0  0
    0.3822    0.2190    0.7346 H   0  0  0  0  0  0  0  0  0  0  0  0
    0.7649   -1.0843   -0.4196 H   0  0  0  0  0  0  0  0  0  0  0  0
    2.7263    0.9979    0.2870 H   0  0  0  0  0  0  0  0  0  0  0  0
    2.5448   -1.8119    1.1290 H   0  0  0  0  0  0  0  0  0  0  0  0
    2.4653   -0.4430    2.2522 H   0  0  0  0  0  0  0  0  0  0  0  0
    4.8245    0.2213    1.5571 H   0  0  0  0  0  0  0  0  0  0  0  0
    4.8623   -1.1988    0.4587 H   0  0  0  0  0  0  0  0  0  0  0  0
    6.9070   -0.0047    3.8877 H   0  0  0  0  0  0  0  0  0  0  0  0
    9.3990    0.0414    3.7580 H   0  0  0  0  0  0  0  0  0  0  0  0
   11.5201   -0.9684    2.9653 H   0  0  0  0  0  0  0  0  0  0  0  0
   13.6014   -1.9225    2.2432 H   0  0  0  0  0  0  0  0  0  0  0  0
   13.4949   -2.7496    0.6687 H   0  0  0  0  0  0  0  0  0  0  0  0
   13.5738   -3.7020    2.1595 H   0  0  0  0  0  0  0  0  0  0  0  0
   11.4383   -4.6043    0.6492 H   0  0  0  0  0  0  0  0  0  0  0  0
    8.9704   -4.6464    0.7565 H   0  0  0  0  0  0  0  0  0  0  0  0
    6.8087   -3.6177    1.5413 H   0  0  0  0  0  0  0  0  0  0  0  0
  1  2  1  0
  1 19  1  0
  1 20  1  0
  1 21  1  0
  2  3  1  0
  2 22  1  0
  3  4  1  0
  3 23  1  0
  3 24  1  0
  5  4  1  6
  4 25  1  0
  4 26  1  0
  5  6  2  0
  5  7  2  0
  5  8  1  0
  8  9  2  0
  8 18  1  0
  9 10  1  0
  9 27  1  0
 10 11  2  0
 10 28  1  0
 11 12  1  0
 11 17  1  0
 12 13  2  0
 12 29  1  0
 13 14  1  0
 13 15  1  0
 14 30  1  0
 14 31  1  0
 14 32  1  0
 15 16  2  0
 15 33  1  0
 16 17  1  0
 16 34  1  0
 17 18  2  0
 18 35  1  0
M  END

