
     RDKit          3D

 40 41  0  0  0  0  0  0  0  0999 V2000
    5.0621   -0.4452    1.3921 C   0  0  0  0  0  0  0  0  0  0  0  0
    4.3141    0.4021    0.5562 O   0  0  0  0  0  0  0  0  0  0  0  0
    4.4886    0.3217   -0.7939 C   0  0  0  0  0  0  0  0  0  0  0  0
    5.3651   -0.5634   -1.4360 C   0  0  0  0  0  0  0  0  0  0  0  0
    5.4614   -0.5683   -2.8334 C   0  0  0  0  0  0  0  0  0  0  0  0
    4.6993    0.3082   -3.6283 C   0  0  0  0  0  0  0  0  0  0  0  0
    4.8528    0.4080   -5.0127 N   0  0  0  0  0  0  0  0  0  0  0  0
    4.8477   -0.5462   -5.8791 C   0  0  0  0  0  0  0  0  0  0  0  0
    5.3866   -0.1841   -7.2636 C   0  0  0  0  0  0  0  0  0  0  0  0
    6.8847   -0.3916   -7.4374 C   0  0  0  0  0  0  0  0  0  0  0  0
    7.3918   -1.0930   -8.5420 C   0  0  0  0  0  0  0  0  0  0  0  0
    8.7696   -1.2625   -8.7170 C   0  0  0  0  0  0  0  0  0  0  0  0
    9.6640   -0.7318   -7.7846 C   0  0  0  0  0  0  0  0  0  0  0  0
    9.1701   -0.0276   -6.6809 C   0  0  0  0  0  0  0  0  0  0  0  0
    7.7945    0.1428   -6.5089 C   0  0  0  0  0  0  0  0  0  0  0  0
    4.3740   -1.8332   -5.7048 N   0  0  0  0  0  0  0  0  0  0  0  0
    4.7225   -2.9299   -6.5916 C   0  0  0  0  0  0  0  0  0  0  0  0
    3.3983   -2.1707   -4.6820 C   0  0  0  0  0  0  0  0  0  0  0  0
    3.8429    1.2116   -2.9594 C   0  0  0  0  0  0  0  0  0  0  0  0
    3.7280    1.2097   -1.5748 C   0  0  0  0  0  0  0  0  0  0  0  0
    4.7696   -0.2098    2.4248 H   0  0  0  0  0  0  0  0  0  0  0  0
    6.1505   -0.2796    1.2846 H   0  0  0  0  0  0  0  0  0  0  0  0
    4.8505   -1.5135    1.1981 H   0  0  0  0  0  0  0  0  0  0  0  0
    5.9842   -1.2549   -0.8631 H   0  0  0  0  0  0  0  0  0  0  0  0
    6.1587   -1.2571   -3.3168 H   0  0  0  0  0  0  0  0  0  0  0  0
    5.1632    0.8874   -7.3740 H   0  0  0  0  0  0  0  0  0  0  0  0
    4.8432   -0.7171   -8.0580 H   0  0  0  0  0  0  0  0  0  0  0  0
    6.6996   -1.5072   -9.2817 H   0  0  0  0  0  0  0  0  0  0  0  0
    9.1428   -1.8108   -9.5861 H   0  0  0  0  0  0  0  0  0  0  0  0
   10.7410   -0.8626   -7.9180 H   0  0  0  0  0  0  0  0  0  0  0  0
    9.8627    0.3969   -5.9491 H   0  0  0  0  0  0  0  0  0  0  0  0
    7.4088    0.7000   -5.6520 H   0  0  0  0  0  0  0  0  0  0  0  0
    5.6347   -2.7146   -7.1585 H   0  0  0  0  0  0  0  0  0  0  0  0
    3.9081   -3.1732   -7.3020 H   0  0  0  0  0  0  0  0  0  0  0  0
    4.9223   -3.8364   -5.9945 H   0  0  0  0  0  0  0  0  0  0  0  0
    2.8766   -1.2730   -4.3320 H   0  0  0  0  0  0  0  0  0  0  0  0
    3.8498   -2.6637   -3.8023 H   0  0  0  0  0  0  0  0  0  0  0  0
    2.6498   -2.8555   -5.1164 H   0  0  0  0  0  0  0  0  0  0  0  0
    3.2670    1.9197   -3.5597 H   0  0  0  0  0  0  0  0  0  0  0  0
    3.0574    1.9039   -1.0634 H   0  0  0  0  0  0  0  0  0  0  0  0
  1  2  1  0
  1 21  1  0
  1 22  1  0
  1 23  1  0
  2  3  1  0
  3  4  2  0
  3 20  1  0
  4  5  1  0
  4 24  1  0
  5  6  2  0
  5 25  1  0
  6  7  1  0
  6 19  1  0
  7  8  2  0
  8  9  1  0
  8 16  1  0
  9 10  1  0
  9 26  1  0
  9 27  1  0
 10 11  2  0
 10 15  1  0
 11 12  1  0
 11 28  1  0
 12 13  2  0
 12 29  1  0
 13 14  1  0
 13 30  1  0
 14 15  2  0
 14 31  1  0
 15 32  1  0
 16 17  1  0
 16 18  1  0
 17 33  1  0
 17 34  1  0
 17 35  1  0
 18 36  1  0
 18 37  1  0
 18 38  1  0
 19 20  2  0
 19 39  1  0
 20 40  1  0
M  END

