
     RDKit          3D

 28 29  0  0  0  0  0  0  0  0999 V2000
    2.4066    0.5271    1.1781 O   0  0  0  0  0  0  0  0  0  0  0  0
    2.1619    0.5619    0.0059 C   0  0  0  0  0  0  0  0  0  0  0  0
    3.0366    0.5612   -1.0196 O   0  0  0  0  0  0  0  0  0  0  0  0
    4.4230    0.5327   -0.9152 C   0  0  0  0  0  0  0  0  0  0  0  0
    5.0869    0.6758   -2.1392 C   0  0  0  0  0  0  0  0  0  0  0  0
    6.4796    0.6487   -2.1642 C   0  0  0  0  0  0  0  0  0  0  0  0
    7.2061    0.4781   -0.9831 C   0  0  0  0  0  0  0  0  0  0  0  0
    6.5427    0.3288    0.2469 C   0  0  0  0  0  0  0  0  0  0  0  0
    7.3053    0.1447    1.5122 C   0  0  0  0  0  0  0  0  0  0  0  0
    6.8686    0.7240    2.7178 C   0  0  0  0  0  0  0  0  0  0  0  0
    7.6016    0.5694    3.8972 C   0  0  0  0  0  0  0  0  0  0  0  0
    8.7830   -0.1705    3.9024 C   0  0  0  0  0  0  0  0  0  0  0  0
    9.2249   -0.7819    2.7196 C   0  0  0  0  0  0  0  0  0  0  0  0
   10.5021   -1.5760    2.7744 C   0  0  0  0  0  0  0  0  0  0  0  0
   11.3263   -1.4380    3.6388 O   0  0  0  0  0  0  0  0  0  0  0  0
   10.6915   -2.4814    1.7863 O   0  0  0  0  0  0  0  0  0  0  0  0
    8.4910   -0.6106    1.5376 C   0  0  0  0  0  0  0  0  0  0  0  0
    5.1345    0.3581    0.2752 C   0  0  0  0  0  0  0  0  0  0  0  0
    1.1408    0.6020   -0.4272 H   0  0  0  0  0  0  0  0  0  0  0  0
    4.4976    0.8074   -3.0483 H   0  0  0  0  0  0  0  0  0  0  0  0
    7.0055    0.7717   -3.1140 H   0  0  0  0  0  0  0  0  0  0  0  0
    8.2975    0.4901   -1.0160 H   0  0  0  0  0  0  0  0  0  0  0  0
    5.9581    1.3271    2.7263 H   0  0  0  0  0  0  0  0  0  0  0  0
    7.2496    1.0416    4.8176 H   0  0  0  0  0  0  0  0  0  0  0  0
    9.3788   -0.2923    4.8087 H   0  0  0  0  0  0  0  0  0  0  0  0
    9.8847   -2.5823    1.2621 H   0  0  0  0  0  0  0  0  0  0  0  0
    8.8407   -1.0582    0.6032 H   0  0  0  0  0  0  0  0  0  0  0  0
    4.5974    0.2294    1.2102 H   0  0  0  0  0  0  0  0  0  0  0  0
  1  2  2  0
  2  3  1  0
  2 19  1  0
  3  4  1  0
  4  5  2  0
  4 18  1  0
  5  6  1  0
  5 20  1  0
  6  7  2  0
  6 21  1  0
  7  8  1  0
  7 22  1  0
  8  9  1  0
  8 18  2  0
  9 10  2  0
  9 17  1  0
 10 11  1  0
 10 23  1  0
 11 12  2  0
 11 24  1  0
 12 13  1  0
 12 25  1  0
 13 14  1  0
 13 17  2  0
 14 15  2  0
 14 16  1  0
 16 26  1  0
 17 27  1  0
 18 28  1  0
M  END

