
     RDKit          3D

 59 63  0  0  0  0  0  0  0  0999 V2000
    3.0144    0.7491   -1.8324 C   0  0  0  0  0  0  0  0  0  0  0  0
    2.5985    0.3158   -0.4217 C   0  0  1  0  0  0  0  0  0  0  0  0
    1.5037    0.2716   -0.3827 H   0  0  0  0  0  0  0  0  0  0  0  0
    3.1448   -1.0630   -0.0169 C   0  0  0  0  0  0  0  0  0  0  0  0
    4.6736   -1.0528    0.0358 C   0  0  0  0  0  0  0  0  0  0  0  0
    5.2383    0.2329    0.6088 C   0  0  0  0  0  0  0  0  0  0  0  0
    6.6124    0.3215    0.8559 C   0  0  0  0  0  0  0  0  0  0  0  0
    7.2147    1.4840    1.3570 C   0  0  0  0  0  0  0  0  0  0  0  0
    8.6763    1.5160    1.6124 C   0  0  0  0  0  0  0  0  0  0  0  0
    9.3202    2.5619    2.3120 C   0  0  0  0  0  0  0  0  0  0  0  0
   10.6854    2.5100    2.4909 C   0  0  0  0  0  0  0  0  0  0  0  0
   11.3797    1.3962    1.9508 C   0  0  0  0  0  0  0  0  0  0  0  0
   12.7515    1.2490    2.0146 N   0  0  0  0  0  0  0  0  0  0  0  0
   13.3589   -0.0539    1.7394 C   0  0  0  0  0  0  0  0  0  0  0  0
   14.7595    0.1282    1.1697 C   0  0  0  0  0  0  0  0  0  0  0  0
   15.5621    0.9349    2.0119 O   0  0  0  0  0  0  0  0  0  0  0  0
   14.9962    2.2133    2.1785 C   0  0  0  0  0  0  0  0  0  0  0  0
   13.5943    2.1465    2.7894 C   0  0  0  0  0  0  0  0  0  0  0  0
   10.6979    0.4129    1.3326 N   0  0  0  0  0  0  0  0  0  0  0  0
    9.3975    0.4789    1.1653 N   0  0  0  0  0  0  0  0  0  0  0  0
    6.3834    2.5955    1.5916 C   0  0  0  0  0  0  0  0  0  0  0  0
    5.0165    2.5352    1.3506 C   0  0  0  0  0  0  0  0  0  0  0  0
    4.4200    1.3557    0.8679 C   0  0  0  0  0  0  0  0  0  0  0  0
    3.0185    1.2928    0.6048 N   0  0  0  0  0  0  0  0  0  0  0  0
    2.1148    1.8942    1.4738 C   0  0  0  0  0  0  0  0  0  0  0  0
    2.4598    2.4518    2.5021 O   0  0  0  0  0  0  0  0  0  0  0  0
    0.6391    1.8140    1.1517 C   0  0  0  0  0  0  0  0  0  0  0  0
   -0.2114    1.2433    2.1076 C   0  0  0  0  0  0  0  0  0  0  0  0
   -1.5971    1.2289    1.9538 C   0  0  0  0  0  0  0  0  0  0  0  0
   -2.1682    1.8383    0.8276 C   0  0  0  0  0  0  0  0  0  0  0  0
   -3.5057    1.8740    0.6089 O   0  0  0  0  0  0  0  0  0  0  0  0
   -1.3432    2.4508   -0.1238 C   0  0  0  0  0  0  0  0  0  0  0  0
    0.0457    2.4464    0.0394 C   0  0  0  0  0  0  0  0  0  0  0  0
    0.8639    3.0594   -0.8570 O   0  0  0  0  0  0  0  0  0  0  0  0
    4.1054    0.8534   -1.9288 H   0  0  0  0  0  0  0  0  0  0  0  0
    2.5558    1.7158   -2.0778 H   0  0  0  0  0  0  0  0  0  0  0  0
    2.6785    0.0023   -2.5700 H   0  0  0  0  0  0  0  0  0  0  0  0
    2.7859   -1.8328   -0.7192 H   0  0  0  0  0  0  0  0  0  0  0  0
    2.7304   -1.3150    0.9736 H   0  0  0  0  0  0  0  0  0  0  0  0
    5.0855   -1.1916   -0.9798 H   0  0  0  0  0  0  0  0  0  0  0  0
    5.0428   -1.9112    0.6204 H   0  0  0  0  0  0  0  0  0  0  0  0
    7.2509   -0.5418    0.6589 H   0  0  0  0  0  0  0  0  0  0  0  0
    8.7505    3.3929    2.7299 H   0  0  0  0  0  0  0  0  0  0  0  0
   11.1941    3.2970    3.0466 H   0  0  0  0  0  0  0  0  0  0  0  0
   12.7129   -0.5977    1.0405 H   0  0  0  0  0  0  0  0  0  0  0  0
   13.4193   -0.6467    2.6751 H   0  0  0  0  0  0  0  0  0  0  0  0
   14.6952    0.5797    0.1582 H   0  0  0  0  0  0  0  0  0  0  0  0
   15.2628   -0.8464    1.0822 H   0  0  0  0  0  0  0  0  0  0  0  0
   14.9388    2.7394    1.2024 H   0  0  0  0  0  0  0  0  0  0  0  0
   15.6659    2.7845    2.8397 H   0  0  0  0  0  0  0  0  0  0  0  0
   13.1746    3.1616    2.7910 H   0  0  0  0  0  0  0  0  0  0  0  0
   13.6671    1.8097    3.8449 H   0  0  0  0  0  0  0  0  0  0  0  0
    6.7997    3.5377    1.9533 H   0  0  0  0  0  0  0  0  0  0  0  0
    4.3973    3.4079    1.5444 H   0  0  0  0  0  0  0  0  0  0  0  0
    0.2354    0.8003    3.0005 H   0  0  0  0  0  0  0  0  0  0  0  0
   -2.2342    0.7617    2.7102 H   0  0  0  0  0  0  0  0  0  0  0  0
   -3.9627    1.4345    1.3381 H   0  0  0  0  0  0  0  0  0  0  0  0
   -1.8053    2.9418   -0.9844 H   0  0  0  0  0  0  0  0  0  0  0  0
    0.3328    3.4920   -1.5387 H   0  0  0  0  0  0  0  0  0  0  0  0
  1  2  1  0
  1 35  1  0
  1 36  1  0
  1 37  1  0
  2  3  1  6
  2  4  1  0
  2 24  1  0
  4  5  1  0
  4 38  1  0
  4 39  1  0
  5  6  1  0
  5 40  1  0
  5 41  1  0
  6  7  1  0
  6 23  2  0
  7  8  2  0
  7 42  1  0
  8  9  1  0
  8 21  1  0
  9 10  2  0
  9 20  1  0
 10 11  1  0
 10 43  1  0
 11 12  2  0
 11 44  1  0
 12 13  1  0
 12 19  1  0
 13 14  1  0
 13 18  1  0
 14 15  1  0
 14 45  1  0
 14 46  1  0
 15 16  1  0
 15 47  1  0
 15 48  1  0
 16 17  1  0
 17 18  1  0
 17 49  1  0
 17 50  1  0
 18 51  1  0
 18 52  1  0
 19 20  2  0
 21 22  2  0
 21 53  1  0
 22 23  1  0
 22 54  1  0
 23 24  1  0
 24 25  1  0
 25 26  2  0
 25 27  1  0
 27 28  2  0
 27 33  1  0
 28 29  1  0
 28 55  1  0
 29 30  2  0
 29 56  1  0
 30 31  1  0
 30 32  1  0
 31 57  1  0
 32 33  2  0
 32 58  1  0
 33 34  1  0
 34 59  1  0
M  END

