
     RDKit          3D

 36 37  0  0  0  0  0  0  0  0999 V2000
    5.0301   -1.5994   -0.5410 C   0  0  0  0  0  0  0  0  0  0  0  0
    4.2714   -1.4040    0.7764 C   0  0  1  0  0  0  0  0  0  0  0  0
    4.3188   -2.6666    1.6450 C   0  0  0  0  0  0  0  0  0  0  0  0
    4.7805   -0.1914    1.5699 C   0  0  0  0  0  0  0  0  0  0  0  0
    4.6482    1.0605    0.8354 N   0  0  0  0  0  0  0  0  0  0  0  0
    5.0865    2.2465    1.5625 C   0  0  0  0  0  0  0  0  0  0  0  0
    6.5975    2.4160    1.5162 C   0  0  0  0  0  0  0  0  0  0  0  0
    7.4153    2.3786    2.6596 C   0  0  0  0  0  0  0  0  0  0  0  0
    6.7196    2.1589    4.2553 Cl  0  0  0  0  0  0  0  0  0  0  0  0
    8.8098    2.4948    2.5911 C   0  0  0  0  0  0  0  0  0  0  0  0
    9.4303    2.6558    1.3559 C   0  0  0  0  0  0  0  0  0  0  0  0
    8.6566    2.7126    0.1955 C   0  0  0  0  0  0  0  0  0  0  0  0
    7.2682    2.5921    0.2850 C   0  0  0  0  0  0  0  0  0  0  0  0
    6.5256    2.6314   -0.9374 N   0  0  0  0  0  0  0  0  0  0  0  0
    6.6528    1.8109   -2.0167 C   0  0  0  0  0  0  0  0  0  0  0  0
    5.7811    2.1359   -2.9443 N   0  0  0  0  0  0  0  0  0  0  0  0
    5.1201    3.1837   -2.3758 C   0  0  0  0  0  0  0  0  0  0  0  0
    4.0522    3.8891   -3.0222 C   0  0  0  0  0  0  0  0  0  0  0  0
    3.1867    4.4555   -3.5460 N   0  0  0  0  0  0  0  0  0  0  0  0
    5.5423    3.5166   -1.1587 N   0  0  0  0  0  0  0  0  0  0  0  0
    4.6219   -2.4494   -1.1110 H   0  0  0  0  0  0  0  0  0  0  0  0
    6.0969   -1.8097   -0.3482 H   0  0  0  0  0  0  0  0  0  0  0  0
    4.9719   -0.7025   -1.1742 H   0  0  0  0  0  0  0  0  0  0  0  0
    3.2086   -1.2082    0.5301 H   0  0  0  0  0  0  0  0  0  0  0  0
    5.3567   -2.9103    1.9310 H   0  0  0  0  0  0  0  0  0  0  0  0
    3.9121   -3.5360    1.1044 H   0  0  0  0  0  0  0  0  0  0  0  0
    3.7367   -2.5459    2.5730 H   0  0  0  0  0  0  0  0  0  0  0  0
    5.8495   -0.3420    1.8101 H   0  0  0  0  0  0  0  0  0  0  0  0
    4.2542   -0.1557    2.5503 H   0  0  0  0  0  0  0  0  0  0  0  0
    3.6836    1.1874    0.5331 H   0  0  0  0  0  0  0  0  0  0  0  0
    4.7649    2.2458    2.6194 H   0  0  0  0  0  0  0  0  0  0  0  0
    4.6338    3.1262    1.0838 H   0  0  0  0  0  0  0  0  0  0  0  0
    9.3925    2.4553    3.5124 H   0  0  0  0  0  0  0  0  0  0  0  0
   10.5166    2.7508    1.2973 H   0  0  0  0  0  0  0  0  0  0  0  0
    9.1209    2.8689   -0.7799 H   0  0  0  0  0  0  0  0  0  0  0  0
    7.3762    0.9981   -2.0551 H   0  0  0  0  0  0  0  0  0  0  0  0
  1  2  1  0
  1 21  1  0
  1 22  1  0
  1 23  1  0
  2  3  1  0
  2  4  1  0
  2 24  1  6
  3 25  1  0
  3 26  1  0
  3 27  1  0
  4  5  1  0
  4 28  1  0
  4 29  1  0
  5  6  1  0
  5 30  1  0
  6  7  1  0
  6 31  1  0
  6 32  1  0
  7  8  2  0
  7 13  1  0
  8  9  1  0
  8 10  1  0
 10 11  2  0
 10 33  1  0
 11 12  1  0
 11 34  1  0
 12 13  2  0
 12 35  1  0
 13 14  1  0
 14 15  1  0
 14 20  1  0
 15 16  2  0
 15 36  1  0
 16 17  1  0
 17 18  1  0
 17 20  2  0
 18 19  3  0
M  END

