
     RDKit          3D

 44 44  0  0  0  0  0  0  0  0999 V2000
    1.4948    1.5543   -1.8934 C   0  0  0  0  0  0  0  0  0  0  0  0
    2.7706    1.3011   -2.7071 C   0  0  1  0  0  0  0  0  0  0  0  0
    3.4313    2.6264   -3.1070 C   0  0  0  0  0  0  0  0  0  0  0  0
    3.7864    0.4190   -1.9526 C   0  0  0  0  0  0  0  0  0  0  0  0
    3.3530   -1.0131   -1.5878 C   0  0  2  0  0  0  0  0  0  0  0  0
    2.3436   -0.9837   -1.1423 H   0  0  0  0  0  0  0  0  0  0  0  0
    4.2318   -1.6656   -0.6022 N   0  0  0  0  0  0  0  0  0  0  0  0
    3.9078   -1.4390    0.8075 C   0  0  0  0  0  0  0  0  0  0  0  0
    4.8726   -2.1654    1.7484 C   0  0  0  0  0  0  0  0  0  0  0  0
    6.3385   -1.7061    1.7086 C   0  0  0  0  0  0  0  0  0  0  0  0
    6.5703   -0.2482    2.1519 C   0  0  0  0  0  0  0  0  0  0  0  0
    8.0324    0.1403    2.1728 C   0  0  0  0  0  0  0  0  0  0  0  0
    8.6512    0.7097    1.0490 C   0  0  0  0  0  0  0  0  0  0  0  0
   10.0087    1.0288    1.0595 C   0  0  0  0  0  0  0  0  0  0  0  0
   10.7846    0.7861    2.1976 C   0  0  0  0  0  0  0  0  0  0  0  0
   12.4752    1.1978    2.1850 Cl  0  0  0  0  0  0  0  0  0  0  0  0
   10.1795    0.2184    3.3312 C   0  0  0  0  0  0  0  0  0  0  0  0
   11.0974   -0.0963    4.7767 Cl  0  0  0  0  0  0  0  0  0  0  0  0
    8.8174   -0.0980    3.3088 C   0  0  0  0  0  0  0  0  0  0  0  0
    3.2170   -1.9434   -2.8197 C   0  0  0  0  0  0  0  0  0  0  0  0
    2.7639   -1.5912   -3.8792 O   0  0  0  0  0  0  0  0  0  0  0  0
    3.6194   -3.1897   -2.5739 O   0  0  0  0  0  0  0  0  0  0  0  0
    0.8016    2.2053   -2.4495 H   0  0  0  0  0  0  0  0  0  0  0  0
    1.7208    2.0546   -0.9347 H   0  0  0  0  0  0  0  0  0  0  0  0
    0.9477    0.6247   -1.6693 H   0  0  0  0  0  0  0  0  0  0  0  0
    2.4916    0.7609   -3.6247 H   0  0  0  0  0  0  0  0  0  0  0  0
    3.7473    3.2021   -2.2189 H   0  0  0  0  0  0  0  0  0  0  0  0
    2.7360    3.2594   -3.6812 H   0  0  0  0  0  0  0  0  0  0  0  0
    4.3237    2.4604   -3.7325 H   0  0  0  0  0  0  0  0  0  0  0  0
    4.0572    0.9314   -1.0099 H   0  0  0  0  0  0  0  0  0  0  0  0
    4.7142    0.3551   -2.5496 H   0  0  0  0  0  0  0  0  0  0  0  0
    5.1996   -1.3981   -0.7870 H   0  0  0  0  0  0  0  0  0  0  0  0
    2.8890   -1.8238    0.9804 H   0  0  0  0  0  0  0  0  0  0  0  0
    3.8735   -0.3583    1.0576 H   0  0  0  0  0  0  0  0  0  0  0  0
    4.8326   -3.2441    1.5200 H   0  0  0  0  0  0  0  0  0  0  0  0
    4.4897   -2.0507    2.7776 H   0  0  0  0  0  0  0  0  0  0  0  0
    6.7636   -1.8518    0.6988 H   0  0  0  0  0  0  0  0  0  0  0  0
    6.9285   -2.3703    2.3621 H   0  0  0  0  0  0  0  0  0  0  0  0
    6.1369   -0.1080    3.1570 H   0  0  0  0  0  0  0  0  0  0  0  0
    6.0276    0.4400    1.4828 H   0  0  0  0  0  0  0  0  0  0  0  0
    8.0638    0.9152    0.1500 H   0  0  0  0  0  0  0  0  0  0  0  0
   10.4844    1.4752    0.1846 H   0  0  0  0  0  0  0  0  0  0  0  0
    8.3732   -0.5338    4.2064 H   0  0  0  0  0  0  0  0  0  0  0  0
    3.9719   -3.1472   -1.6475 H   0  0  0  0  0  0  0  0  0  0  0  0
  1  2  1  0
  1 23  1  0
  1 24  1  0
  1 25  1  0
  2  3  1  0
  2  4  1  0
  2 26  1  6
  3 27  1  0
  3 28  1  0
  3 29  1  0
  4  5  1  0
  4 30  1  0
  4 31  1  0
  5  6  1  1
  5  7  1  0
  5 20  1  0
  7  8  1  0
  7 32  1  0
  8  9  1  0
  8 33  1  0
  8 34  1  0
  9 10  1  0
  9 35  1  0
  9 36  1  0
 10 11  1  0
 10 37  1  0
 10 38  1  0
 11 12  1  0
 11 39  1  0
 11 40  1  0
 12 13  2  0
 12 19  1  0
 13 14  1  0
 13 41  1  0
 14 15  2  0
 14 42  1  0
 15 16  1  0
 15 17  1  0
 17 18  1  0
 17 19  2  0
 19 43  1  0
 20 21  2  0
 20 22  1  0
 22 44  1  0
M  END

