
     RDKit          3D

190202  0  0  0  0  0  0  0  0999 V2000
   -1.9804    6.5983    6.5286 C   0  0  0  0  0  0  0  0  0  0  0  0
   -1.9971    7.3418    5.1805 C   0  0  2  0  0  0  0  0  0  0  0  0
   -0.9377    8.4667    5.2400 C   0  0  0  0  0  0  0  0  0  0  0  0
   -3.3994    7.9663    4.9947 C   0  0  0  0  0  0  0  0  0  0  0  0
   -1.6871    6.4072    3.9918 C   0  0  0  0  0  0  0  0  0  0  0  0
   -1.4230    5.0300    4.1584 C   0  0  0  0  0  0  0  0  0  0  0  0
   -1.1381    4.1809    3.0853 C   0  0  0  0  0  0  0  0  0  0  0  0
   -1.1103    4.7288    1.8047 C   0  0  0  0  0  0  0  0  0  0  0  0
   -1.3815    6.1030    1.5931 C   0  0  0  0  0  0  0  0  0  0  0  0
   -1.6649    6.9263    2.6875 C   0  0  0  0  0  0  0  0  0  0  0  0
   -1.3039    6.3342    0.1602 C   0  0  0  0  0  0  0  0  0  0  0  0
   -1.4555    7.4769   -0.6387 C   0  0  0  0  0  0  0  0  0  0  0  0
   -1.3011    7.4003   -2.0280 C   0  0  0  0  0  0  0  0  0  0  0  0
   -1.4614    8.6240   -2.9532 C   0  0  1  0  0  0  0  0  0  0  0  0
   -2.6007    8.3598   -3.9649 C   0  0  0  0  0  0  0  0  0  0  0  0
   -1.8053    9.9030   -2.1688 C   0  0  0  0  0  0  0  0  0  0  0  0
   -0.1406    8.8706   -3.7188 C   0  0  0  0  0  0  0  0  0  0  0  0
   -0.9814    6.1401   -2.5899 C   0  0  0  0  0  0  0  0  0  0  0  0
   -0.8231    4.9872   -1.8230 C   0  0  0  0  0  0  0  0  0  0  0  0
   -0.9962    5.0929   -0.4415 C   0  0  0  0  0  0  0  0  0  0  0  0
   -0.8766    4.1150    0.5615 N   0  0  0  0  0  0  0  0  0  0  0  0
   -0.5752    2.7563    0.3573 C   0  0  0  0  0  0  0  0  0  0  0  0
   -1.5000    1.9052   -0.2816 C   0  0  0  0  0  0  0  0  0  0  0  0
   -2.8070    2.4087   -0.5930 C   0  0  0  0  0  0  0  0  0  0  0  0
   -3.8699    2.8196   -0.8107 N   0  0  0  0  0  0  0  0  0  0  0  0
   -1.1922    0.5416   -0.5222 C   0  0  0  0  0  0  0  0  0  0  0  0
   -2.1454   -0.2544   -1.1837 N   0  0  0  0  0  0  0  0  0  0  0  0
   -2.8401   -1.3547   -0.6458 C   0  0  0  0  0  0  0  0  0  0  0  0
   -2.8066   -1.8998    0.6388 C   0  0  0  0  0  0  0  0  0  0  0  0
   -3.6407   -2.9822    0.9116 C   0  0  0  0  0  0  0  0  0  0  0  0
   -4.5199   -3.5388   -0.0489 C   0  0  0  0  0  0  0  0  0  0  0  0
   -5.4031   -4.7422    0.3387 C   0  0  1  0  0  0  0  0  0  0  0  0
   -6.3189   -4.3531    1.5224 C   0  0  0  0  0  0  0  0  0  0  0  0
   -6.2972   -5.2047   -0.8258 C   0  0  0  0  0  0  0  0  0  0  0  0
   -4.5025   -5.9287    0.7542 C   0  0  0  0  0  0  0  0  0  0  0  0
   -4.5512   -2.9552   -1.3207 C   0  0  0  0  0  0  0  0  0  0  0  0
   -3.7231   -1.8647   -1.6248 C   0  0  0  0  0  0  0  0  0  0  0  0
   -3.5697   -1.0372   -2.8079 C   0  0  0  0  0  0  0  0  0  0  0  0
   -4.1617   -1.0641   -4.0791 C   0  0  0  0  0  0  0  0  0  0  0  0
   -3.8100   -0.1186   -5.0494 C   0  0  0  0  0  0  0  0  0  0  0  0
   -4.4338   -0.0985   -6.4597 C   0  0  2  0  0  0  0  0  0  0  0  0
   -5.4608   -1.2281   -6.6556 C   0  0  0  0  0  0  0  0  0  0  0  0
   -3.3210   -0.2717   -7.5196 C   0  0  0  0  0  0  0  0  0  0  0  0
   -5.1538    1.2512   -6.6863 C   0  0  0  0  0  0  0  0  0  0  0  0
   -2.8409    0.8539   -4.7022 C   0  0  0  0  0  0  0  0  0  0  0  0
   -2.2343    0.9044   -3.4484 C   0  0  0  0  0  0  0  0  0  0  0  0
   -2.6087   -0.0492   -2.4983 C   0  0  0  0  0  0  0  0  0  0  0  0
    0.0368   -0.0012   -0.0566 C   0  0  0  0  0  0  0  0  0  0  0  0
    0.3393   -1.3631   -0.2615 N   0  0  0  0  0  0  0  0  0  0  0  0
    0.4862   -2.0012   -1.5081 C   0  0  0  0  0  0  0  0  0  0  0  0
    0.4238   -1.4802   -2.8026 C   0  0  0  0  0  0  0  0  0  0  0  0
    0.6465   -2.3466   -3.8713 C   0  0  0  0  0  0  0  0  0  0  0  0
    0.9377   -3.7218   -3.7001 C   0  0  0  0  0  0  0  0  0  0  0  0
    1.1632   -4.6103   -4.9402 C   0  0  2  0  0  0  0  0  0  0  0  0
    1.4766   -6.0686   -4.5599 C   0  0  0  0  0  0  0  0  0  0  0  0
    2.3532   -4.0616   -5.7614 C   0  0  0  0  0  0  0  0  0  0  0  0
   -0.1110   -4.6049   -5.8165 C   0  0  0  0  0  0  0  0  0  0  0  0
    1.0101   -4.2138   -2.3919 C   0  0  0  0  0  0  0  0  0  0  0  0
    0.7905   -3.3651   -1.2970 C   0  0  0  0  0  0  0  0  0  0  0  0
    0.8243   -3.5741    0.1384 C   0  0  0  0  0  0  0  0  0  0  0  0
    1.0446   -4.7079    0.9342 C   0  0  0  0  0  0  0  0  0  0  0  0
    0.9891   -4.6201    2.3299 C   0  0  0  0  0  0  0  0  0  0  0  0
    1.2294   -5.8317    3.2531 C   0  0  1  0  0  0  0  0  0  0  0  0
   -0.0279   -6.0810    4.1183 C   0  0  0  0  0  0  0  0  0  0  0  0
    1.5260   -7.1165    2.4590 C   0  0  0  0  0  0  0  0  0  0  0  0
    2.4381   -5.5459    4.1746 C   0  0  0  0  0  0  0  0  0  0  0  0
    0.6958   -3.3571    2.8991 C   0  0  0  0  0  0  0  0  0  0  0  0
    0.4721   -2.2142    2.1335 C   0  0  0  0  0  0  0  0  0  0  0  0
    0.5491   -2.3268    0.7434 C   0  0  0  0  0  0  0  0  0  0  0  0
    0.9566    0.8472    0.6186 C   0  0  0  0  0  0  0  0  0  0  0  0
    2.1920    0.3670    1.0902 N   0  0  0  0  0  0  0  0  0  0  0  0
    3.2476   -0.1454    0.3109 C   0  0  0  0  0  0  0  0  0  0  0  0
    3.3654   -0.2755   -1.0707 C   0  0  0  0  0  0  0  0  0  0  0  0
    4.5581   -0.7909   -1.5860 C   0  0  0  0  0  0  0  0  0  0  0  0
    5.6429   -1.1706   -0.7665 C   0  0  0  0  0  0  0  0  0  0  0  0
    6.9556   -1.7444   -1.3403 C   0  0  2  0  0  0  0  0  0  0  0  0
    7.1944   -3.1586   -0.7622 C   0  0  0  0  0  0  0  0  0  0  0  0
    8.1360   -0.8246   -0.9505 C   0  0  0  0  0  0  0  0  0  0  0  0
    6.9229   -1.8553   -2.8756 C   0  0  0  0  0  0  0  0  0  0  0  0
    5.5050   -1.0026    0.6205 C   0  0  0  0  0  0  0  0  0  0  0  0
    4.3235   -0.4906    1.1652 C   0  0  0  0  0  0  0  0  0  0  0  0
    3.9113   -0.1660    2.5199 C   0  0  0  0  0  0  0  0  0  0  0  0
    4.5380   -0.2941    3.7677 C   0  0  0  0  0  0  0  0  0  0  0  0
    3.8846    0.1086    4.9384 C   0  0  0  0  0  0  0  0  0  0  0  0
    4.5299   -0.0021    6.3347 C   0  0  2  0  0  0  0  0  0  0  0  0
    4.6280    1.4043    6.9704 C   0  0  0  0  0  0  0  0  0  0  0  0
    5.9471   -0.5996    6.2728 C   0  0  0  0  0  0  0  0  0  0  0  0
    3.6630   -0.9135    7.2343 C   0  0  0  0  0  0  0  0  0  0  0  0
    2.5783    0.6404    4.8145 C   0  0  0  0  0  0  0  0  0  0  0  0
    1.9295    0.7779    3.5884 C   0  0  0  0  0  0  0  0  0  0  0  0
    2.6086    0.3732    2.4365 C   0  0  0  0  0  0  0  0  0  0  0  0
    0.6565    2.2231    0.7887 C   0  0  0  0  0  0  0  0  0  0  0  0
    1.6548    3.1132    1.3083 C   0  0  0  0  0  0  0  0  0  0  0  0
    2.4645    3.8479    1.6965 N   0  0  0  0  0  0  0  0  0  0  0  0
   -2.2047    7.3030    7.3448 H   0  0  0  0  0  0  0  0  0  0  0  0
   -2.7363    5.7982    6.5672 H   0  0  0  0  0  0  0  0  0  0  0  0
   -0.9961    6.1516    6.7401 H   0  0  0  0  0  0  0  0  0  0  0  0
    0.0730    8.0503    5.3759 H   0  0  0  0  0  0  0  0  0  0  0  0
   -0.9281    9.0709    4.3201 H   0  0  0  0  0  0  0  0  0  0  0  0
   -1.1433    9.1471    6.0831 H   0  0  0  0  0  0  0  0  0  0  0  0
   -3.6368    8.6401    5.8347 H   0  0  0  0  0  0  0  0  0  0  0  0
   -3.4678    8.5552    4.0673 H   0  0  0  0  0  0  0  0  0  0  0  0
   -4.1766    7.1867    4.9529 H   0  0  0  0  0  0  0  0  0  0  0  0
   -1.4380    4.5922    5.1561 H   0  0  0  0  0  0  0  0  0  0  0  0
   -0.9478    3.1201    3.2592 H   0  0  0  0  0  0  0  0  0  0  0  0
   -1.8733    7.9841    2.5119 H   0  0  0  0  0  0  0  0  0  0  0  0
   -1.6921    8.4248   -0.1556 H   0  0  0  0  0  0  0  0  0  0  0  0
   -3.5565    8.1851   -3.4460 H   0  0  0  0  0  0  0  0  0  0  0  0
   -2.7294    9.2252   -4.6361 H   0  0  0  0  0  0  0  0  0  0  0  0
   -2.3972    7.4794   -4.5935 H   0  0  0  0  0  0  0  0  0  0  0  0
   -2.7551    9.8056   -1.6200 H   0  0  0  0  0  0  0  0  0  0  0  0
   -1.9120   10.7500   -2.8647 H   0  0  0  0  0  0  0  0  0  0  0  0
   -1.0170   10.1670   -1.4466 H   0  0  0  0  0  0  0  0  0  0  0  0
    0.6889    9.0679   -3.0213 H   0  0  0  0  0  0  0  0  0  0  0  0
    0.1433    8.0070   -4.3394 H   0  0  0  0  0  0  0  0  0  0  0  0
   -0.2389    9.7420   -4.3874 H   0  0  0  0  0  0  0  0  0  0  0  0
   -0.8492    6.0539   -3.6705 H   0  0  0  0  0  0  0  0  0  0  0  0
   -0.5686    4.0379   -2.2981 H   0  0  0  0  0  0  0  0  0  0  0  0
   -2.1562   -1.5016    1.4168 H   0  0  0  0  0  0  0  0  0  0  0  0
   -3.6035   -3.4084    1.9162 H   0  0  0  0  0  0  0  0  0  0  0  0
   -5.7404   -4.0540    2.4097 H   0  0  0  0  0  0  0  0  0  0  0  0
   -6.9762   -3.5112    1.2526 H   0  0  0  0  0  0  0  0  0  0  0  0
   -6.9567   -5.2044    1.8130 H   0  0  0  0  0  0  0  0  0  0  0  0
   -6.9893   -4.4128   -1.1526 H   0  0  0  0  0  0  0  0  0  0  0  0
   -6.9071   -6.0654   -0.5090 H   0  0  0  0  0  0  0  0  0  0  0  0
   -5.7044   -5.5233   -1.6975 H   0  0  0  0  0  0  0  0  0  0  0  0
   -3.8611   -5.6772    1.6127 H   0  0  0  0  0  0  0  0  0  0  0  0
   -3.8448   -6.2336   -0.0753 H   0  0  0  0  0  0  0  0  0  0  0  0
   -5.1172   -6.7984    1.0403 H   0  0  0  0  0  0  0  0  0  0  0  0
   -5.2248   -3.3305   -2.0910 H   0  0  0  0  0  0  0  0  0  0  0  0
   -4.8996   -1.8367   -4.2947 H   0  0  0  0  0  0  0  0  0  0  0  0
   -5.8808   -1.1782   -7.6726 H   0  0  0  0  0  0  0  0  0  0  0  0
   -5.0055   -2.2236   -6.5352 H   0  0  0  0  0  0  0  0  0  0  0  0
   -6.3005   -1.1470   -5.9479 H   0  0  0  0  0  0  0  0  0  0  0  0
   -3.7495   -0.2581   -8.5355 H   0  0  0  0  0  0  0  0  0  0  0  0
   -2.7941   -1.2300   -7.3853 H   0  0  0  0  0  0  0  0  0  0  0  0
   -2.5718    0.5330   -7.4654 H   0  0  0  0  0  0  0  0  0  0  0  0
   -4.4640    2.1049   -6.6043 H   0  0  0  0  0  0  0  0  0  0  0  0
   -5.9562    1.3991   -5.9463 H   0  0  0  0  0  0  0  0  0  0  0  0
   -5.6055    1.2836   -7.6917 H   0  0  0  0  0  0  0  0  0  0  0  0
   -2.5503    1.6072   -5.4375 H   0  0  0  0  0  0  0  0  0  0  0  0
   -1.4965    1.6780   -3.2283 H   0  0  0  0  0  0  0  0  0  0  0  0
    0.2054   -0.4295   -2.9916 H   0  0  0  0  0  0  0  0  0  0  0  0
    0.5861   -1.9316   -4.8796 H   0  0  0  0  0  0  0  0  0  0  0  0
    1.6296   -6.6677   -5.4714 H   0  0  0  0  0  0  0  0  0  0  0  0
    2.3936   -6.1478   -3.9552 H   0  0  0  0  0  0  0  0  0  0  0  0
    0.6525   -6.5318   -3.9950 H   0  0  0  0  0  0  0  0  0  0  0  0
    2.1752   -3.0316   -6.1062 H   0  0  0  0  0  0  0  0  0  0  0  0
    2.5273   -4.6852   -6.6539 H   0  0  0  0  0  0  0  0  0  0  0  0
    3.2778   -4.0592   -5.1621 H   0  0  0  0  0  0  0  0  0  0  0  0
   -0.3714   -3.5913   -6.1576 H   0  0  0  0  0  0  0  0  0  0  0  0
   -0.9744   -5.0005   -5.2582 H   0  0  0  0  0  0  0  0  0  0  0  0
    0.0332   -5.2318   -6.7121 H   0  0  0  0  0  0  0  0  0  0  0  0
    1.2432   -5.2614   -2.2016 H   0  0  0  0  0  0  0  0  0  0  0  0
    1.2545   -5.6578    0.4425 H   0  0  0  0  0  0  0  0  0  0  0  0
   -0.9051   -6.2937    3.4863 H   0  0  0  0  0  0  0  0  0  0  0  0
   -0.2722   -5.2127    4.7490 H   0  0  0  0  0  0  0  0  0  0  0  0
    0.1276   -6.9440    4.7868 H   0  0  0  0  0  0  0  0  0  0  0  0
    0.6884   -7.3953    1.8005 H   0  0  0  0  0  0  0  0  0  0  0  0
    2.4307   -7.0165    1.8392 H   0  0  0  0  0  0  0  0  0  0  0  0
    1.6927   -7.9548    3.1536 H   0  0  0  0  0  0  0  0  0  0  0  0
    2.6228   -6.4009    4.8460 H   0  0  0  0  0  0  0  0  0  0  0  0
    3.3513   -5.3723    3.5836 H   0  0  0  0  0  0  0  0  0  0  0  0
    2.2748   -4.6576    4.8038 H   0  0  0  0  0  0  0  0  0  0  0  0
    0.6429   -3.2563    3.9851 H   0  0  0  0  0  0  0  0  0  0  0  0
    0.2478   -1.2673    2.6242 H   0  0  0  0  0  0  0  0  0  0  0  0
    2.5616    0.0133   -1.7470 H   0  0  0  0  0  0  0  0  0  0  0  0
    4.6319   -0.8949   -2.6681 H   0  0  0  0  0  0  0  0  0  0  0  0
    7.2729   -3.1455    0.3356 H   0  0  0  0  0  0  0  0  0  0  0  0
    6.3699   -3.8384   -1.0299 H   0  0  0  0  0  0  0  0  0  0  0  0
    8.1311   -3.5851   -1.1581 H   0  0  0  0  0  0  0  0  0  0  0  0
    8.2473   -0.7388    0.1412 H   0  0  0  0  0  0  0  0  0  0  0  0
    7.9942    0.1912   -1.3523 H   0  0  0  0  0  0  0  0  0  0  0  0
    9.0837   -1.2211   -1.3513 H   0  0  0  0  0  0  0  0  0  0  0  0
    7.8755   -2.2723   -3.2390 H   0  0  0  0  0  0  0  0  0  0  0  0
    6.7883   -0.8738   -3.3567 H   0  0  0  0  0  0  0  0  0  0  0  0
    6.1171   -2.5207   -3.2230 H   0  0  0  0  0  0  0  0  0  0  0  0
    6.3264   -1.2621    1.2922 H   0  0  0  0  0  0  0  0  0  0  0  0
    5.5431   -0.7139    3.8063 H   0  0  0  0  0  0  0  0  0  0  0  0
    3.6394    1.8740    7.0859 H   0  0  0  0  0  0  0  0  0  0  0  0
    5.2450    2.0746    6.3514 H   0  0  0  0  0  0  0  0  0  0  0  0
    5.0869    1.3442    7.9713 H   0  0  0  0  0  0  0  0  0  0  0  0
    5.9464   -1.6180    5.8535 H   0  0  0  0  0  0  0  0  0  0  0  0
    6.6279    0.0199    5.6683 H   0  0  0  0  0  0  0  0  0  0  0  0
    6.3708   -0.6609    7.2876 H   0  0  0  0  0  0  0  0  0  0  0  0
    4.1086   -1.0012    8.2391 H   0  0  0  0  0  0  0  0  0  0  0  0
    3.5823   -1.9264    6.8082 H   0  0  0  0  0  0  0  0  0  0  0  0
    2.6425   -0.5197    7.3577 H   0  0  0  0  0  0  0  0  0  0  0  0
    2.0452    0.9668    5.7100 H   0  0  0  0  0  0  0  0  0  0  0  0
    0.9238    1.1996    3.5459 H   0  0  0  0  0  0  0  0  0  0  0  0
  2  1  1  1
  1 95  1  0
  1 96  1  0
  1 97  1  0
  2  3  1  0
  2  4  1  0
  2  5  1  0
  3 98  1  0
  3 99  1  0
  3100  1  0
  4101  1  0
  4102  1  0
  4103  1  0
  5  6  2  0
  5 10  1  0
  6  7  1  0
  6104  1  0
  7  8  2  0
  7105  1  0
  8  9  1  0
  8 21  1  0
  9 10  2  0
  9 11  1  0
 10106  1  0
 11 12  2  0
 11 20  1  0
 12 13  1  0
 12107  1  0
 13 14  1  0
 13 18  2  0
 14 15  1  6
 14 16  1  0
 14 17  1  0
 15108  1  0
 15109  1  0
 15110  1  0
 16111  1  0
 16112  1  0
 16113  1  0
 17114  1  0
 17115  1  0
 17116  1  0
 18 19  1  0
 18117  1  0
 19 20  2  0
 19118  1  0
 20 21  1  0
 21 22  1  0
 22 23  2  0
 22 92  1  0
 23 24  1  0
 23 26  1  0
 24 25  3  0
 26 27  1  0
 26 48  2  0
 27 28  1  0
 27 47  1  0
 28 29  2  0
 28 37  1  0
 29 30  1  0
 29119  1  0
 30 31  2  0
 30120  1  0
 31 32  1  0
 31 36  1  0
 32 33  1  1
 32 34  1  0
 32 35  1  0
 33121  1  0
 33122  1  0
 33123  1  0
 34124  1  0
 34125  1  0
 34126  1  0
 35127  1  0
 35128  1  0
 35129  1  0
 36 37  2  0
 36130  1  0
 37 38  1  0
 38 39  1  0
 38 47  2  0
 39 40  2  0
 39131  1  0
 40 41  1  0
 40 45  1  0
 41 42  1  1
 41 43  1  0
 41 44  1  0
 42132  1  0
 42133  1  0
 42134  1  0
 43135  1  0
 43136  1  0
 43137  1  0
 44138  1  0
 44139  1  0
 44140  1  0
 45 46  2  0
 45141  1  0
 46 47  1  0
 46142  1  0
 48 49  1  0
 48 70  1  0
 49 50  1  0
 49 69  1  0
 50 51  2  0
 50 59  1  0
 51 52  1  0
 51143  1  0
 52 53  2  0
 52144  1  0
 53 54  1  0
 53 58  1  0
 54 55  1  1
 54 56  1  0
 54 57  1  0
 55145  1  0
 55146  1  0
 55147  1  0
 56148  1  0
 56149  1  0
 56150  1  0
 57151  1  0
 57152  1  0
 57153  1  0
 58 59  2  0
 58154  1  0
 59 60  1  0
 60 61  1  0
 60 69  2  0
 61 62  2  0
 61155  1  0
 62 63  1  0
 62 67  1  0
 63 64  1  1
 63 65  1  0
 63 66  1  0
 64156  1  0
 64157  1  0
 64158  1  0
 65159  1  0
 65160  1  0
 65161  1  0
 66162  1  0
 66163  1  0
 66164  1  0
 67 68  2  0
 67165  1  0
 68 69  1  0
 68166  1  0
 70 71  1  0
 70 92  2  0
 71 72  1  0
 71 91  1  0
 72 73  2  0
 72 81  1  0
 73 74  1  0
 73167  1  0
 74 75  2  0
 74168  1  0
 75 76  1  0
 75 80  1  0
 76 77  1  1
 76 78  1  0
 76 79  1  0
 77169  1  0
 77170  1  0
 77171  1  0
 78172  1  0
 78173  1  0
 78174  1  0
 79175  1  0
 79176  1  0
 79177  1  0
 80 81  2  0
 80178  1  0
 81 82  1  0
 82 83  1  0
 82 91  2  0
 83 84  2  0
 83179  1  0
 84 85  1  0
 84 89  1  0
 85 86  1  1
 85 87  1  0
 85 88  1  0
 86180  1  0
 86181  1  0
 86182  1  0
 87183  1  0
 87184  1  0
 87185  1  0
 88186  1  0
 88187  1  0
 88188  1  0
 89 90  2  0
 89189  1  0
 90 91  1  0
 90190  1  0
 92 93  1  0
 93 94  3  0
M  END

