
     RDKit          3D

 47 48  0  0  0  0  0  0  0  0999 V2000
    6.2553    6.6169    1.8337 C   0  0  0  0  0  0  0  0  0  0  0  0
    5.9523    5.2078    1.3251 C   0  0  0  0  0  0  0  0  0  0  0  0
    7.0434    4.1891    1.7055 C   0  0  0  0  0  0  0  0  0  0  0  0
    6.7712    2.8159    1.1458 C   0  0  0  0  0  0  0  0  0  0  0  0
    7.2104    2.5839   -0.1037 N   0  0  0  0  0  0  0  0  0  0  0  0
    6.9720    1.3935   -0.6534 C   0  0  0  0  0  0  0  0  0  0  0  0
    7.5658    1.1453   -2.0596 C   0  0  1  0  0  0  0  0  0  0  0  0
    8.9843    0.9898   -1.9177 O   0  0  0  0  0  0  0  0  0  0  0  0
    9.4900   -0.1029   -1.1761 C   0  0  0  0  0  0  0  0  0  0  0  0
   11.0006    0.0451   -1.1072 C   0  0  0  0  0  0  0  0  0  0  0  0
    6.9322   -0.0690   -2.7663 C   0  0  0  0  0  0  0  0  0  0  0  0
    5.4896    0.1864   -3.2306 C   0  0  0  0  0  0  0  0  0  0  0  0
    5.3365    1.4437   -4.1096 C   0  0  2  0  0  0  0  0  0  0  0  0
    5.8878    1.2472   -5.5294 C   0  0  0  0  0  0  0  0  0  0  0  0
    5.9704    2.6495   -3.3866 C   0  0  0  0  0  0  0  0  0  0  0  0
    7.4158    2.3928   -2.9471 C   0  0  0  0  0  0  0  0  0  0  0  0
    6.3220    0.3919   -0.0609 N   0  0  0  0  0  0  0  0  0  0  0  0
    5.8564    0.5788    1.1843 C   0  0  0  0  0  0  0  0  0  0  0  0
    5.1961   -0.4512    1.7616 N   0  0  0  0  0  0  0  0  0  0  0  0
    6.0714    1.8218    1.8328 C   0  0  0  0  0  0  0  0  0  0  0  0
    5.3897    2.0799    3.6044 Br  0  0  0  0  0  0  0  0  0  0  0  0
    5.4636    7.3257    1.5430 H   0  0  0  0  0  0  0  0  0  0  0  0
    7.2076    6.9941    1.4253 H   0  0  0  0  0  0  0  0  0  0  0  0
    6.3352    6.6393    2.9335 H   0  0  0  0  0  0  0  0  0  0  0  0
    5.8502    5.2171    0.2267 H   0  0  0  0  0  0  0  0  0  0  0  0
    4.9817    4.8666    1.7252 H   0  0  0  0  0  0  0  0  0  0  0  0
    7.1428    4.1455    2.8009 H   0  0  0  0  0  0  0  0  0  0  0  0
    8.0070    4.5199    1.2880 H   0  0  0  0  0  0  0  0  0  0  0  0
    9.2253   -1.0666   -1.6530 H   0  0  0  0  0  0  0  0  0  0  0  0
    9.0637   -0.1258   -0.1544 H   0  0  0  0  0  0  0  0  0  0  0  0
   11.4342    0.0551   -2.1194 H   0  0  0  0  0  0  0  0  0  0  0  0
   11.4475   -0.7894   -0.5436 H   0  0  0  0  0  0  0  0  0  0  0  0
   11.2725    0.9901   -0.6121 H   0  0  0  0  0  0  0  0  0  0  0  0
    6.9460   -0.9455   -2.1041 H   0  0  0  0  0  0  0  0  0  0  0  0
    7.5790   -0.2985   -3.6295 H   0  0  0  0  0  0  0  0  0  0  0  0
    4.8477    0.2910   -2.3400 H   0  0  0  0  0  0  0  0  0  0  0  0
    5.1186   -0.7009   -3.7727 H   0  0  0  0  0  0  0  0  0  0  0  0
    4.2551    1.6462   -4.2122 H   0  0  0  0  0  0  0  0  0  0  0  0
    6.9689    1.0361   -5.5379 H   0  0  0  0  0  0  0  0  0  0  0  0
    5.7259    2.1482   -6.1437 H   0  0  0  0  0  0  0  0  0  0  0  0
    5.3855    0.4054   -6.0340 H   0  0  0  0  0  0  0  0  0  0  0  0
    5.3608    2.8957   -2.4991 H   0  0  0  0  0  0  0  0  0  0  0  0
    5.9354    3.5419   -4.0347 H   0  0  0  0  0  0  0  0  0  0  0  0
    7.8177    3.2543   -2.3972 H   0  0  0  0  0  0  0  0  0  0  0  0
    8.0682    2.2313   -3.8198 H   0  0  0  0  0  0  0  0  0  0  0  0
    5.0850   -1.3039    1.2298 H   0  0  0  0  0  0  0  0  0  0  0  0
    4.8201   -0.3732    2.6956 H   0  0  0  0  0  0  0  0  0  0  0  0
  1  2  1  0
  1 22  1  0
  1 23  1  0
  1 24  1  0
  2  3  1  0
  2 25  1  0
  2 26  1  0
  3  4  1  0
  3 27  1  0
  3 28  1  0
  4  5  2  0
  4 20  1  0
  5  6  1  0
  6  7  1  0
  6 17  2  0
  7  8  1  1
  7 11  1  0
  7 16  1  0
  8  9  1  0
  9 10  1  0
  9 29  1  0
  9 30  1  0
 10 31  1  0
 10 32  1  0
 10 33  1  0
 11 12  1  0
 11 34  1  0
 11 35  1  0
 12 13  1  0
 12 36  1  0
 12 37  1  0
 13 14  1  0
 13 15  1  0
 13 38  1  6
 14 39  1  0
 14 40  1  0
 14 41  1  0
 15 16  1  0
 15 42  1  0
 15 43  1  0
 16 44  1  0
 16 45  1  0
 17 18  1  0
 18 19  1  0
 18 20  2  0
 19 46  1  0
 19 47  1  0
 20 21  1  0
M  END

