
     RDKit          3D

 53 54  0  0  0  0  0  0  0  0999 V2000
    1.0655   -1.2018    0.3866 C   0  0  0  0  0  0  0  0  0  0  0  0
    2.3647   -0.4881    0.0390 C   0  0  0  0  0  0  0  0  0  0  0  0
    2.4096    0.7152   -0.1205 O   0  0  0  0  0  0  0  0  0  0  0  0
    3.4615   -1.3265   -0.0444 N   0  0  0  0  0  0  0  0  0  0  0  0
    4.8116   -1.0117   -0.2946 C   0  0  0  0  0  0  0  0  0  0  0  0
    5.2620    0.3175   -0.3218 C   0  0  0  0  0  0  0  0  0  0  0  0
    6.6164    0.5882   -0.5618 C   0  0  0  0  0  0  0  0  0  0  0  0
    7.1286    1.9023   -0.6221 N   0  0  0  0  0  0  0  0  0  0  0  0
    6.6070    3.0457   -0.0485 C   0  0  0  0  0  0  0  0  0  0  0  0
    5.5742    3.0512    0.6192 O   0  0  0  0  0  0  0  0  0  0  0  0
    7.3567    4.1715   -0.2764 N   0  0  0  0  0  0  0  0  0  0  0  0
    6.9114    5.5220    0.0867 C   0  0  1  0  0  0  0  0  0  0  0  0
    6.5696    5.6482    1.5936 C   0  0  0  0  0  0  0  0  0  0  0  0
    5.0584    5.7315    1.9170 C   0  0  0  0  0  0  0  0  0  0  0  0
    4.7018    5.0235    3.2217 C   0  0  0  0  0  0  0  0  0  0  0  0
    4.3405    5.5943    4.2191 O   0  0  0  0  0  0  0  0  0  0  0  0
    4.8447    3.6895    3.1893 O   0  0  0  0  0  0  0  0  0  0  0  0
    8.0224    6.5171   -0.3194 C   0  0  0  0  0  0  0  0  0  0  0  0
    8.4375    6.4489   -1.7740 C   0  0  0  0  0  0  0  0  0  0  0  0
    7.5879    6.9262   -2.7879 C   0  0  0  0  0  0  0  0  0  0  0  0
    7.9549    6.8399   -4.1321 C   0  0  0  0  0  0  0  0  0  0  0  0
    9.1827    6.2728   -4.4924 C   0  0  0  0  0  0  0  0  0  0  0  0
   10.0397    5.7973   -3.4977 C   0  0  0  0  0  0  0  0  0  0  0  0
    9.6685    5.8860   -2.1507 C   0  0  0  0  0  0  0  0  0  0  0  0
    7.5102   -0.4696   -0.7864 C   0  0  0  0  0  0  0  0  0  0  0  0
    7.0453   -1.7830   -0.7636 C   0  0  0  0  0  0  0  0  0  0  0  0
    5.7042   -2.0912   -0.5166 C   0  0  0  0  0  0  0  0  0  0  0  0
    5.2312   -3.5243   -0.4937 C   0  0  0  0  0  0  0  0  0  0  0  0
    0.2460   -0.7172   -0.1609 H   0  0  0  0  0  0  0  0  0  0  0  0
    0.8653   -1.0723    1.4629 H   0  0  0  0  0  0  0  0  0  0  0  0
    1.0731   -2.2787    0.1595 H   0  0  0  0  0  0  0  0  0  0  0  0
    3.2660   -2.3105    0.0816 H   0  0  0  0  0  0  0  0  0  0  0  0
    4.5558    1.1228   -0.1557 H   0  0  0  0  0  0  0  0  0  0  0  0
    8.0628    1.9738   -1.0074 H   0  0  0  0  0  0  0  0  0  0  0  0
    8.0192    4.1377   -1.0456 H   0  0  0  0  0  0  0  0  0  0  0  0
    6.0053    5.7693   -0.4989 H   0  0  0  0  0  0  0  0  0  0  0  0
    7.0650    6.5437    2.0014 H   0  0  0  0  0  0  0  0  0  0  0  0
    7.0277    4.7961    2.1172 H   0  0  0  0  0  0  0  0  0  0  0  0
    4.4831    5.2543    1.1089 H   0  0  0  0  0  0  0  0  0  0  0  0
    4.7291    6.7757    2.0070 H   0  0  0  0  0  0  0  0  0  0  0  0
    5.0826    3.3843    2.2853 H   0  0  0  0  0  0  0  0  0  0  0  0
    8.8993    6.3462    0.3268 H   0  0  0  0  0  0  0  0  0  0  0  0
    7.6490    7.5272   -0.0863 H   0  0  0  0  0  0  0  0  0  0  0  0
    6.6283    7.3778   -2.5192 H   0  0  0  0  0  0  0  0  0  0  0  0
    7.2813    7.2211   -4.9039 H   0  0  0  0  0  0  0  0  0  0  0  0
    9.4707    6.2081   -5.5446 H   0  0  0  0  0  0  0  0  0  0  0  0
   11.0055    5.3620   -3.7674 H   0  0  0  0  0  0  0  0  0  0  0  0
   10.3545    5.5281   -1.3766 H   0  0  0  0  0  0  0  0  0  0  0  0
    8.5688   -0.2679   -0.9734 H   0  0  0  0  0  0  0  0  0  0  0  0
    7.7507   -2.5996   -0.9398 H   0  0  0  0  0  0  0  0  0  0  0  0
    6.0583   -4.2133   -0.7154 H   0  0  0  0  0  0  0  0  0  0  0  0
    4.4400   -3.7141   -1.2412 H   0  0  0  0  0  0  0  0  0  0  0  0
    4.8270   -3.8171    0.4932 H   0  0  0  0  0  0  0  0  0  0  0  0
  1  2  1  0
  1 29  1  0
  1 30  1  0
  1 31  1  0
  2  3  2  0
  2  4  1  0
  4  5  1  0
  4 32  1  0
  5  6  2  0
  5 27  1  0
  6  7  1  0
  6 33  1  0
  7  8  1  0
  7 25  2  0
  8  9  1  0
  8 34  1  0
  9 10  2  0
  9 11  1  0
 11 12  1  0
 11 35  1  0
 12 13  1  0
 12 18  1  0
 12 36  1  6
 13 14  1  0
 13 37  1  0
 13 38  1  0
 14 15  1  0
 14 39  1  0
 14 40  1  0
 15 16  2  0
 15 17  1  0
 17 41  1  0
 18 19  1  0
 18 42  1  0
 18 43  1  0
 19 20  2  0
 19 24  1  0
 20 21  1  0
 20 44  1  0
 21 22  2  0
 21 45  1  0
 22 23  1  0
 22 46  1  0
 23 24  2  0
 23 47  1  0
 24 48  1  0
 25 26  1  0
 25 49  1  0
 26 27  2  0
 26 50  1  0
 27 28  1  0
 28 51  1  0
 28 52  1  0
 28 53  1  0
M  END

