
     RDKit          3D

 47 48  0  0  0  0  0  0  0  0999 V2000
    1.4099   -0.1099   -0.2130 C   0  0  0  0  0  0  0  0  0  0  0  0
    2.9026   -0.0563   -0.1340 C   0  0  0  0  0  0  0  0  0  0  0  0
    3.6945    1.0674   -0.0784 C   0  0  0  0  0  0  0  0  0  0  0  0
    3.3702    2.5129   -0.0853 C   0  0  0  0  0  0  0  0  0  0  0  0
    2.2146    2.9199   -0.1338 O   0  0  0  0  0  0  0  0  0  0  0  0
    4.4532    3.3455   -0.0393 N   0  0  0  0  0  0  0  0  0  0  0  0
    4.3131    4.7917   -0.0068 C   0  0  0  0  0  0  0  0  0  0  0  0
    4.2150    5.3838    1.4075 C   0  0  0  0  0  0  0  0  0  0  0  0
    5.4120    5.1186    2.3388 C   0  0  1  0  0  0  0  0  0  0  0  0
    6.7150    5.7444    1.8222 C   0  0  0  0  0  0  0  0  0  0  0  0
    5.1030    5.6022    3.7613 C   0  0  0  0  0  0  0  0  0  0  0  0
    5.0285    0.7148   -0.0124 O   0  0  0  0  0  0  0  0  0  0  0  0
    5.0874   -0.6310   -0.0266 C   0  0  0  0  0  0  0  0  0  0  0  0
    3.8248   -1.1718   -0.0980 C   0  0  0  0  0  0  0  0  0  0  0  0
    3.6257   -2.6203   -0.0831 C   0  0  0  0  0  0  0  0  0  0  0  0
    2.4256   -3.0960   -0.1192 N   0  0  0  0  0  0  0  0  0  0  0  0
    2.2060   -4.4200   -0.0528 N   0  0  0  0  0  0  0  0  0  0  0  0
    0.9152   -4.9628   -0.1049 C   0  0  0  0  0  0  0  0  0  0  0  0
   -0.0739   -4.0435   -0.2594 N   0  0  0  0  0  0  0  0  0  0  0  0
    0.7574   -6.1670   -0.0169 O   0  0  0  0  0  0  0  0  0  0  0  0
    4.8911   -3.4606    0.0405 C   0  0  0  0  0  0  0  0  0  0  0  0
    6.1459   -2.7778   -0.5354 C   0  0  0  0  0  0  0  0  0  0  0  0
    6.3781   -1.3671    0.0326 C   0  0  0  0  0  0  0  0  0  0  0  0
    0.9925    0.9037   -0.2236 H   0  0  0  0  0  0  0  0  0  0  0  0
    0.9996   -0.6679    0.6443 H   0  0  0  0  0  0  0  0  0  0  0  0
    1.0922   -0.6470   -1.1216 H   0  0  0  0  0  0  0  0  0  0  0  0
    5.3731    2.9275    0.0237 H   0  0  0  0  0  0  0  0  0  0  0  0
    3.3947    5.0393   -0.5585 H   0  0  0  0  0  0  0  0  0  0  0  0
    5.1587    5.2310   -0.5604 H   0  0  0  0  0  0  0  0  0  0  0  0
    3.2982    4.9863    1.8744 H   0  0  0  0  0  0  0  0  0  0  0  0
    4.0645    6.4754    1.3105 H   0  0  0  0  0  0  0  0  0  0  0  0
    5.5561    4.0225    2.3864 H   0  0  0  0  0  0  0  0  0  0  0  0
    6.6199    6.8411    1.7386 H   0  0  0  0  0  0  0  0  0  0  0  0
    7.0023    5.3619    0.8294 H   0  0  0  0  0  0  0  0  0  0  0  0
    7.5536    5.5366    2.5064 H   0  0  0  0  0  0  0  0  0  0  0  0
    4.9409    6.6939    3.7811 H   0  0  0  0  0  0  0  0  0  0  0  0
    5.9321    5.3775    4.4520 H   0  0  0  0  0  0  0  0  0  0  0  0
    4.1935    5.1248    4.1600 H   0  0  0  0  0  0  0  0  0  0  0  0
    2.9463   -5.1067    0.0792 H   0  0  0  0  0  0  0  0  0  0  0  0
    0.1449   -3.0567   -0.3033 H   0  0  0  0  0  0  0  0  0  0  0  0
   -1.0270   -4.3762   -0.2841 H   0  0  0  0  0  0  0  0  0  0  0  0
    4.7545   -4.4266   -0.4733 H   0  0  0  0  0  0  0  0  0  0  0  0
    5.0534   -3.7008    1.1094 H   0  0  0  0  0  0  0  0  0  0  0  0
    6.0366   -2.7027   -1.6304 H   0  0  0  0  0  0  0  0  0  0  0  0
    7.0265   -3.4108   -0.3465 H   0  0  0  0  0  0  0  0  0  0  0  0
    7.1561   -0.8345   -0.5387 H   0  0  0  0  0  0  0  0  0  0  0  0
    6.7426   -1.4231    1.0765 H   0  0  0  0  0  0  0  0  0  0  0  0
  1  2  1  0
  1 24  1  0
  1 25  1  0
  1 26  1  0
  2  3  2  0
  2 14  1  0
  3  4  1  0
  3 12  1  0
  4  5  2  0
  4  6  1  0
  6  7  1  0
  6 27  1  0
  7  8  1  0
  7 28  1  0
  7 29  1  0
  8  9  1  0
  8 30  1  0
  8 31  1  0
  9 10  1  0
  9 11  1  0
  9 32  1  1
 10 33  1  0
 10 34  1  0
 10 35  1  0
 11 36  1  0
 11 37  1  0
 11 38  1  0
 12 13  1  0
 13 14  2  0
 13 23  1  0
 14 15  1  0
 15 16  2  0
 15 21  1  0
 16 17  1  0
 17 18  1  0
 17 39  1  0
 18 19  1  0
 18 20  2  0
 19 40  1  0
 19 41  1  0
 21 22  1  0
 21 42  1  0
 21 43  1  0
 22 23  1  0
 22 44  1  0
 22 45  1  0
 23 46  1  0
 23 47  1  0
M  END

