
     RDKit          3D

 50 53  0  0  0  0  0  0  0  0999 V2000
    1.3285    0.2333    1.7671 C   0  0  0  0  0  0  0  0  0  0  0  0
    2.8072    0.2707    1.4344 C   0  0  0  0  0  0  0  0  0  0  0  0
    3.2009   -1.0109    0.9468 O   0  0  0  0  0  0  0  0  0  0  0  0
    4.4704   -1.1918    0.5023 C   0  0  0  0  0  0  0  0  0  0  0  0
    5.4970   -0.2416    0.6057 C   0  0  0  0  0  0  0  0  0  0  0  0
    6.7765   -0.5256    0.1126 C   0  0  0  0  0  0  0  0  0  0  0  0
    7.0520   -1.7521   -0.4906 C   0  0  0  0  0  0  0  0  0  0  0  0
    6.0330   -2.7052   -0.5989 C   0  0  0  0  0  0  0  0  0  0  0  0
    4.7566   -2.4349   -0.1111 C   0  0  0  0  0  0  0  0  0  0  0  0
    3.7513   -3.3648   -0.2836 O   0  0  0  0  0  0  0  0  0  0  0  0
    3.4671   -4.2019    0.8390 C   0  0  0  0  0  0  0  0  0  0  0  0
    2.3323   -5.1741    0.5021 C   0  0  0  0  0  0  0  0  0  0  0  0
    2.5200   -6.3779    0.5907 O   0  0  0  0  0  0  0  0  0  0  0  0
    1.1257   -4.6549    0.1236 N   0  0  0  0  0  0  0  0  0  0  0  0
   -0.0158   -5.5775   -0.0338 C   0  0  0  0  0  0  0  0  0  0  0  0
   -1.2613   -4.6870    0.1309 C   0  0  0  0  0  0  0  0  0  0  0  0
   -0.7417   -3.4372    0.8584 C   0  0  0  0  0  0  0  0  0  0  0  0
    0.6625   -3.2613    0.2581 C   0  0  2  0  0  0  0  0  0  0  0  0
    0.6050   -2.5250   -1.0672 C   0  0  0  0  0  0  0  0  0  0  0  0
   -0.3750   -1.7353   -1.4434 N   0  0  0  0  0  0  0  0  0  0  0  0
    0.0040   -1.2488   -2.6828 C   0  0  0  0  0  0  0  0  0  0  0  0
   -0.6556   -0.3668   -3.5533 C   0  0  0  0  0  0  0  0  0  0  0  0
   -0.0304   -0.0403   -4.7550 C   0  0  0  0  0  0  0  0  0  0  0  0
    1.2302   -0.5769   -5.0975 C   0  0  0  0  0  0  0  0  0  0  0  0
    1.9021   -1.4582   -4.2506 C   0  0  0  0  0  0  0  0  0  0  0  0
    1.2704   -1.7836   -3.0446 C   0  0  0  0  0  0  0  0  0  0  0  0
    1.6162   -2.6025   -1.9897 N   0  0  0  0  0  0  0  0  0  0  0  0
    2.5018   -3.0689   -1.8053 H   0  0  0  0  0  0  0  0  0  0  0  0
    1.0072    1.2188    2.1384 H   0  0  0  0  0  0  0  0  0  0  0  0
    1.1195   -0.5103    2.5519 H   0  0  0  0  0  0  0  0  0  0  0  0
    0.7270   -0.0141    0.8791 H   0  0  0  0  0  0  0  0  0  0  0  0
    3.4041    0.5273    2.3292 H   0  0  0  0  0  0  0  0  0  0  0  0
    3.0152    1.0347    0.6634 H   0  0  0  0  0  0  0  0  0  0  0  0
    5.3063    0.7263    1.0688 H   0  0  0  0  0  0  0  0  0  0  0  0
    7.5604    0.2303    0.2032 H   0  0  0  0  0  0  0  0  0  0  0  0
    8.0494   -1.9696   -0.8785 H   0  0  0  0  0  0  0  0  0  0  0  0
    6.2073   -3.6735   -1.0738 H   0  0  0  0  0  0  0  0  0  0  0  0
    3.2084   -3.5838    1.7176 H   0  0  0  0  0  0  0  0  0  0  0  0
    4.3409   -4.8238    1.0851 H   0  0  0  0  0  0  0  0  0  0  0  0
    0.0622   -6.3613    0.7358 H   0  0  0  0  0  0  0  0  0  0  0  0
    0.0214   -6.0873   -1.0099 H   0  0  0  0  0  0  0  0  0  0  0  0
   -2.0633   -5.2007    0.6812 H   0  0  0  0  0  0  0  0  0  0  0  0
   -1.6655   -4.3963   -0.8505 H   0  0  0  0  0  0  0  0  0  0  0  0
   -0.6486   -3.6221    1.9409 H   0  0  0  0  0  0  0  0  0  0  0  0
   -1.3688   -2.5521    0.6956 H   0  0  0  0  0  0  0  0  0  0  0  0
    1.3390   -2.7034    0.9208 H   0  0  0  0  0  0  0  0  0  0  0  0
   -1.6303    0.0448   -3.2829 H   0  0  0  0  0  0  0  0  0  0  0  0
   -0.5223    0.6447   -5.4503 H   0  0  0  0  0  0  0  0  0  0  0  0
    1.6890   -0.2961   -6.0490 H   0  0  0  0  0  0  0  0  0  0  0  0
    2.8763   -1.8729   -4.5196 H   0  0  0  0  0  0  0  0  0  0  0  0
  1  2  1  0
  1 29  1  0
  1 30  1  0
  1 31  1  0
  2  3  1  0
  2 32  1  0
  2 33  1  0
  3  4  1  0
  4  5  2  0
  4  9  1  0
  5  6  1  0
  5 34  1  0
  6  7  2  0
  6 35  1  0
  7  8  1  0
  7 36  1  0
  8  9  2  0
  8 37  1  0
  9 10  1  0
 10 11  1  0
 11 12  1  0
 11 38  1  0
 11 39  1  0
 12 13  2  0
 12 14  1  0
 14 15  1  0
 14 18  1  0
 15 16  1  0
 15 40  1  0
 15 41  1  0
 16 17  1  0
 16 42  1  0
 16 43  1  0
 17 18  1  0
 17 44  1  0
 17 45  1  0
 18 19  1  0
 18 46  1  1
 19 20  2  0
 19 27  1  0
 20 21  1  0
 21 22  2  0
 21 26  1  0
 22 23  1  0
 22 47  1  0
 23 24  2  0
 23 48  1  0
 24 25  1  0
 24 49  1  0
 25 26  2  0
 25 50  1  0
 26 27  1  0
 27 28  1  0
M  END

