
     RDKit          3D

 35 36  0  0  0  0  0  0  0  0999 V2000
    1.2783    0.3942   -0.4871 O   0  0  0  0  0  0  0  0  0  0  0  0
    2.4526    0.3904   -0.1193 C   0  0  0  0  0  0  0  0  0  0  0  0
    2.9014   -0.7856    0.7251 C   0  0  0  0  0  0  0  0  0  0  0  0
    3.8174   -1.7299    0.2445 C   0  0  0  0  0  0  0  0  0  0  0  0
    4.0687   -2.8508    1.0441 C   0  0  0  0  0  0  0  0  0  0  0  0
    5.1977   -4.0564    0.4717 Cl  0  0  0  0  0  0  0  0  0  0  0  0
    3.5055   -3.0602    2.2197 N   0  0  0  0  0  0  0  0  0  0  0  0
    2.6380   -2.1663    2.6614 C   0  0  0  0  0  0  0  0  0  0  0  0
    1.9051   -2.4681    4.2179 Cl  0  0  0  0  0  0  0  0  0  0  0  0
    2.2795   -1.0114    1.9584 C   0  0  0  0  0  0  0  0  0  0  0  0
    3.3555    1.3506   -0.4462 N   0  0  0  0  0  0  0  0  0  0  0  0
    4.6704    1.4787    0.2013 C   0  0  0  0  0  0  0  0  0  0  0  0
    4.6842    2.4074    1.4222 C   0  0  0  0  0  0  0  0  0  0  0  0
    4.1024    3.8152    1.2192 C   0  0  0  0  0  0  0  0  0  0  0  0
    2.5912    3.8364    0.9268 C   0  0  0  0  0  0  0  0  0  0  0  0
    2.1688    3.5889   -0.5305 C   0  0  0  0  0  0  0  0  0  0  0  0
    2.9620    2.5116   -1.2926 C   0  0  2  0  0  0  0  0  0  0  0  0
    2.2823    2.1324   -2.6340 C   0  0  0  0  0  0  0  0  0  0  0  0
    0.8932    2.0081   -2.6020 O   0  0  0  0  0  0  0  0  0  0  0  0
    4.3113   -1.6164   -0.7208 H   0  0  0  0  0  0  0  0  0  0  0  0
    1.5337   -0.3227    2.3546 H   0  0  0  0  0  0  0  0  0  0  0  0
    5.3734    1.8485   -0.5630 H   0  0  0  0  0  0  0  0  0  0  0  0
    5.0307    0.4872    0.5004 H   0  0  0  0  0  0  0  0  0  0  0  0
    5.7320    2.4833    1.7617 H   0  0  0  0  0  0  0  0  0  0  0  0
    4.1322    1.9155    2.2433 H   0  0  0  0  0  0  0  0  0  0  0  0
    4.6559    4.3493    0.4245 H   0  0  0  0  0  0  0  0  0  0  0  0
    4.2911    4.3852    2.1441 H   0  0  0  0  0  0  0  0  0  0  0  0
    2.1763    4.8109    1.2327 H   0  0  0  0  0  0  0  0  0  0  0  0
    2.1013    3.0951    1.5831 H   0  0  0  0  0  0  0  0  0  0  0  0
    2.2733    4.5208   -1.1131 H   0  0  0  0  0  0  0  0  0  0  0  0
    1.1005    3.3337   -0.5675 H   0  0  0  0  0  0  0  0  0  0  0  0
    3.9325    2.9430   -1.5812 H   0  0  0  0  0  0  0  0  0  0  0  0
    2.7875    1.2235   -3.0254 H   0  0  0  0  0  0  0  0  0  0  0  0
    2.5101    2.9466   -3.3433 H   0  0  0  0  0  0  0  0  0  0  0  0
    0.7029    1.3494   -1.9070 H   0  0  0  0  0  0  0  0  0  0  0  0
  1  2  2  0
  2  3  1  0
  2 11  1  0
  3  4  2  0
  3 10  1  0
  4  5  1  0
  4 20  1  0
  5  6  1  0
  5  7  2  0
  7  8  1  0
  8  9  1  0
  8 10  2  0
 10 21  1  0
 11 12  1  0
 11 17  1  0
 12 13  1  0
 12 22  1  0
 12 23  1  0
 13 14  1  0
 13 24  1  0
 13 25  1  0
 14 15  1  0
 14 26  1  0
 14 27  1  0
 15 16  1  0
 15 28  1  0
 15 29  1  0
 16 17  1  0
 16 30  1  0
 16 31  1  0
 17 18  1  0
 17 32  1  6
 18 19  1  0
 18 33  1  0
 18 34  1  0
 19 35  1  0
M  END

