
     RDKit          3D

 42 45  0  0  0  0  0  0  0  0999 V2000
    1.2264   -0.0162    0.0689 O   0  0  0  0  0  0  0  0  0  0  0  0
    2.4525   -0.0292    0.1018 C   0  0  0  0  0  0  0  0  0  0  0  0
    3.2286    0.1543    1.3478 C   0  0  0  0  0  0  0  0  0  0  0  0
    2.5803    0.3648    2.5186 C   0  0  0  0  0  0  0  0  0  0  0  0
    3.1781    0.5549    3.8053 C   0  0  0  0  0  0  0  0  0  0  0  0
    2.6181    0.7844    5.0491 C   0  0  0  0  0  0  0  0  0  0  0  0
    3.6918    0.8959    5.9685 C   0  0  0  0  0  0  0  0  0  0  0  0
    4.8543    0.7281    5.2389 C   0  0  0  0  0  0  0  0  0  0  0  0
    6.2652    0.7291    5.6030 C   0  0  0  0  0  0  0  0  0  0  0  0
    6.6667    0.9656    6.9332 C   0  0  0  0  0  0  0  0  0  0  0  0
    8.0133    0.9661    7.2887 C   0  0  0  0  0  0  0  0  0  0  0  0
    8.9844    0.7284    6.3098 C   0  0  0  0  0  0  0  0  0  0  0  0
   10.8275    0.7283    6.7900 Br  0  0  0  0  0  0  0  0  0  0  0  0
    8.6126    0.4912    4.9833 C   0  0  0  0  0  0  0  0  0  0  0  0
    7.2625    0.4924    4.6363 C   0  0  0  0  0  0  0  0  0  0  0  0
    4.5385    0.5227    3.9330 O   0  0  0  0  0  0  0  0  0  0  0  0
    3.2076   -0.2388   -1.1460 C   0  0  0  0  0  0  0  0  0  0  0  0
    2.7625   -0.4690   -2.4272 C   0  0  0  0  0  0  0  0  0  0  0  0
    3.9172   -0.6117   -3.2383 C   0  0  0  0  0  0  0  0  0  0  0  0
    5.0130   -0.4563   -2.4054 C   0  0  0  0  0  0  0  0  0  0  0  0
    6.4664   -0.4371   -2.5828 C   0  0  0  0  0  0  0  0  0  0  0  0
    7.2648    0.0924   -1.5418 C   0  0  0  0  0  0  0  0  0  0  0  0
    8.6517    0.1498   -1.6294 C   0  0  0  0  0  0  0  0  0  0  0  0
    9.2989   -0.3248   -2.7741 C   0  0  0  0  0  0  0  0  0  0  0  0
    8.5435   -0.8558   -3.8185 C   0  0  0  0  0  0  0  0  0  0  0  0
    7.1494   -0.9134   -3.7266 C   0  0  0  0  0  0  0  0  0  0  0  0
    6.3099   -1.6284   -5.0887 Cl  0  0  0  0  0  0  0  0  0  0  0  0
    4.5714   -0.2298   -1.1362 O   0  0  0  0  0  0  0  0  0  0  0  0
    4.3180    0.1128    1.3035 H   0  0  0  0  0  0  0  0  0  0  0  0
    1.4864    0.3942    2.4892 H   0  0  0  0  0  0  0  0  0  0  0  0
    1.5536    0.8609    5.2602 H   0  0  0  0  0  0  0  0  0  0  0  0
    3.6209    1.0751    7.0383 H   0  0  0  0  0  0  0  0  0  0  0  0
    5.9181    1.1541    7.7055 H   0  0  0  0  0  0  0  0  0  0  0  0
    8.3098    1.1511    8.3224 H   0  0  0  0  0  0  0  0  0  0  0  0
    9.3754    0.3051    4.2254 H   0  0  0  0  0  0  0  0  0  0  0  0
    6.9717    0.3055    3.6017 H   0  0  0  0  0  0  0  0  0  0  0  0
    1.7186   -0.5251   -2.7251 H   0  0  0  0  0  0  0  0  0  0  0  0
    3.9475   -0.7925   -4.3066 H   0  0  0  0  0  0  0  0  0  0  0  0
    6.7620    0.4711   -0.6519 H   0  0  0  0  0  0  0  0  0  0  0  0
    9.2292    0.5711   -0.8033 H   0  0  0  0  0  0  0  0  0  0  0  0
   10.3873   -0.2841   -2.8578 H   0  0  0  0  0  0  0  0  0  0  0  0
    9.0253   -1.2382   -4.7197 H   0  0  0  0  0  0  0  0  0  0  0  0
  1  2  2  0
  2  3  1  0
  2 17  1  0
  3  4  2  0
  3 29  1  0
  4  5  1  0
  4 30  1  0
  5  6  2  0
  5 16  1  0
  6  7  1  0
  6 31  1  0
  7  8  2  0
  7 32  1  0
  8  9  1  0
  8 16  1  0
  9 10  2  0
  9 15  1  0
 10 11  1  0
 10 33  1  0
 11 12  2  0
 11 34  1  0
 12 13  1  0
 12 14  1  0
 14 15  2  0
 14 35  1  0
 15 36  1  0
 17 18  2  0
 17 28  1  0
 18 19  1  0
 18 37  1  0
 19 20  2  0
 19 38  1  0
 20 21  1  0
 20 28  1  0
 21 22  2  0
 21 26  1  0
 22 23  1  0
 22 39  1  0
 23 24  2  0
 23 40  1  0
 24 25  1  0
 24 41  1  0
 25 26  2  0
 25 42  1  0
 26 27  1  0
M  END

