
     RDKit          3D

 17 17  0  0  0  0  0  0  0  0999 V2000
    2.7897   -0.5259   -1.2891 C   0  0  0  0  0  0  0  0  0  0  0  0
    2.3497    0.1583    0.0119 C   0  0  0  0  0  0  0  0  0  0  0  0
    2.8997    1.5435    0.1635 C   0  0  0  0  0  0  0  0  0  0  0  0
    2.2517    2.7373    0.2813 C   0  0  0  0  0  0  0  0  0  0  0  0
    3.1948    3.7218    0.3868 O   0  0  0  0  0  0  0  0  0  0  0  0
    4.3862    3.0763    0.3248 C   0  0  0  0  0  0  0  0  0  0  0  0
    5.6284    3.8956    0.4100 C   0  0  0  0  0  0  0  0  0  0  0  0
    4.2676    1.7909    0.1934 N   0  0  0  0  0  0  0  0  0  0  0  0
    2.4175   -1.5615   -1.3373 H   0  0  0  0  0  0  0  0  0  0  0  0
    3.8879   -0.5500   -1.3566 H   0  0  0  0  0  0  0  0  0  0  0  0
    2.4105    0.0149   -2.1711 H   0  0  0  0  0  0  0  0  0  0  0  0
    2.6883   -0.4478    0.8709 H   0  0  0  0  0  0  0  0  0  0  0  0
    1.2497    0.1993    0.0725 H   0  0  0  0  0  0  0  0  0  0  0  0
    1.2102    3.0434    0.3103 H   0  0  0  0  0  0  0  0  0  0  0  0
    5.3788    4.9536    0.5638 H   0  0  0  0  0  0  0  0  0  0  0  0
    6.2204    3.8004   -0.5140 H   0  0  0  0  0  0  0  0  0  0  0  0
    6.2611    3.5517    1.2427 H   0  0  0  0  0  0  0  0  0  0  0  0
  1  2  1  0
  1  9  1  0
  1 10  1  0
  1 11  1  0
  2  3  1  0
  2 12  1  0
  2 13  1  0
  3  4  2  0
  3  8  1  0
  4  5  1  0
  4 14  1  0
  5  6  1  0
  6  7  1  0
  6  8  2  0
  7 15  1  0
  7 16  1  0
  7 17  1  0
M  END

