
     RDKit          3D

 26 25  0  0  0  0  0  0  0  0999 V2000
    0.9563   -0.2072    0.2129 C   0  0  0  0  0  0  0  0  0  0  0  0
    2.3463    0.2107    0.2059 N   0  0  0  0  0  0  0  0  0  0  0  0
    2.6804    1.3153   -0.6987 C   0  0  1  0  0  0  0  0  0  0  0  0
    2.0351    2.6176   -0.2121 C   0  0  0  0  0  0  0  0  0  0  0  0
    4.2160    1.3931   -0.7778 C   0  0  0  0  0  0  0  0  0  0  0  0
    4.8834    2.3411   -1.8040 C   0  0  1  0  0  0  0  0  0  0  0  0
    6.4083    2.1444   -1.7430 C   0  0  0  0  0  0  0  0  0  0  0  0
    4.3839    2.1089   -3.2326 C   0  0  0  0  0  0  0  0  0  0  0  0
    4.5863    3.7138   -1.5233 O   0  0  0  0  0  0  0  0  0  0  0  0
    0.8532   -1.1291    0.8064 H   0  0  0  0  0  0  0  0  0  0  0  0
    0.5303   -0.4041   -0.7978 H   0  0  0  0  0  0  0  0  0  0  0  0
    0.3165    0.5517    0.6909 H   0  0  0  0  0  0  0  0  0  0  0  0
    2.9323   -0.5911   -0.0205 H   0  0  0  0  0  0  0  0  0  0  0  0
    2.2900    1.1097   -1.7222 H   0  0  0  0  0  0  0  0  0  0  0  0
    2.3683    2.8390    0.8161 H   0  0  0  0  0  0  0  0  0  0  0  0
    0.9371    2.5406   -0.1976 H   0  0  0  0  0  0  0  0  0  0  0  0
    2.3143    3.4568   -0.8613 H   0  0  0  0  0  0  0  0  0  0  0  0
    4.5920    0.3751   -0.9890 H   0  0  0  0  0  0  0  0  0  0  0  0
    4.5969    1.6424    0.2303 H   0  0  0  0  0  0  0  0  0  0  0  0
    6.7035    1.1251   -2.0385 H   0  0  0  0  0  0  0  0  0  0  0  0
    6.7840    2.3174   -0.7201 H   0  0  0  0  0  0  0  0  0  0  0  0
    6.9045    2.8614   -2.4143 H   0  0  0  0  0  0  0  0  0  0  0  0
    4.5496    1.0665   -3.5453 H   0  0  0  0  0  0  0  0  0  0  0  0
    4.9219    2.7724   -3.9266 H   0  0  0  0  0  0  0  0  0  0  0  0
    3.3115    2.3344   -3.3186 H   0  0  0  0  0  0  0  0  0  0  0  0
    4.8565    3.8983   -0.6134 H   0  0  0  0  0  0  0  0  0  0  0  0
  1  2  1  0
  1 10  1  0
  1 11  1  0
  1 12  1  0
  2  3  1  0
  2 13  1  0
  3  4  1  0
  3  5  1  0
  3 14  1  6
  4 15  1  0
  4 16  1  0
  4 17  1  0
  5  6  1  0
  5 18  1  0
  5 19  1  0
  6  7  1  0
  6  8  1  0
  6  9  1  1
  7 20  1  0
  7 21  1  0
  7 22  1  0
  8 23  1  0
  8 24  1  0
  8 25  1  0
  9 26  1  0
M  END

