
     RDKit          3D

 54 54  0  0  0  0  0  0  0  0999 V2000
    1.0433   -0.8243   -0.7872 C   0  0  0  0  0  0  0  0  0  0  0  0
    2.5372   -0.5604   -0.6000 C   0  0  0  0  0  0  0  0  0  0  0  0
    2.9106    0.9178   -0.7118 C   0  0  0  0  0  0  0  0  0  0  0  0
    4.3349    1.1243   -0.5021 N   0  0  0  0  0  0  0  0  0  0  0  0
    4.8225    2.4766   -0.7433 C   0  0  1  0  0  0  0  0  0  0  0  0
    4.4055    3.4974    0.3480 C   0  0  0  0  0  0  0  0  0  0  0  0
    4.8888    3.3244    1.7740 C   0  0  0  0  0  0  0  0  0  0  0  0
    5.6435    4.3320    2.3949 C   0  0  0  0  0  0  0  0  0  0  0  0
    6.0745    4.2089    3.7187 C   0  0  0  0  0  0  0  0  0  0  0  0
    5.7662    3.0706    4.4774 C   0  0  0  0  0  0  0  0  0  0  0  0
    6.1943    2.9512    5.9246 C   0  0  0  0  0  0  0  0  0  0  0  0
    5.1557    3.5020    6.9143 C   0  0  0  0  0  0  0  0  0  0  0  0
    5.0087    2.0635    3.8573 C   0  0  0  0  0  0  0  0  0  0  0  0
    4.5754    2.1852    2.5361 C   0  0  0  0  0  0  0  0  0  0  0  0
    6.3388    2.4332   -1.0564 C   0  0  1  0  0  0  0  0  0  0  0  0
    7.2278    1.7800    0.0042 C   0  0  0  0  0  0  0  0  0  0  0  0
    8.7195    1.8238   -0.3416 C   0  0  0  0  0  0  0  0  0  0  0  0
    9.5978    1.1501    0.7136 C   0  0  0  0  0  0  0  0  0  0  0  0
    6.5303    1.7004   -2.2703 O   0  0  0  0  0  0  0  0  0  0  0  0
    6.4710    2.4426   -3.4704 C   0  0  0  0  0  0  0  0  0  0  0  0
    6.6491    1.4949   -4.6429 C   0  0  0  0  0  0  0  0  0  0  0  0
    0.8120   -1.8979   -0.7049 H   0  0  0  0  0  0  0  0  0  0  0  0
    0.6933   -0.4844   -1.7764 H   0  0  0  0  0  0  0  0  0  0  0  0
    0.4436   -0.2969   -0.0265 H   0  0  0  0  0  0  0  0  0  0  0  0
    3.1110   -1.1324   -1.3529 H   0  0  0  0  0  0  0  0  0  0  0  0
    2.8713   -0.9344    0.3829 H   0  0  0  0  0  0  0  0  0  0  0  0
    2.3439    1.4865    0.0476 H   0  0  0  0  0  0  0  0  0  0  0  0
    2.5670    1.3100   -1.6988 H   0  0  0  0  0  0  0  0  0  0  0  0
    4.8504    0.5023   -1.1260 H   0  0  0  0  0  0  0  0  0  0  0  0
    4.3580    2.8857   -1.6715 H   0  0  0  0  0  0  0  0  0  0  0  0
    3.3017    3.5222    0.3549 H   0  0  0  0  0  0  0  0  0  0  0  0
    4.7120    4.4941   -0.0101 H   0  0  0  0  0  0  0  0  0  0  0  0
    5.9038    5.2326    1.8300 H   0  0  0  0  0  0  0  0  0  0  0  0
    6.6655    5.0130    4.1683 H   0  0  0  0  0  0  0  0  0  0  0  0
    7.1497    3.4838    6.0680 H   0  0  0  0  0  0  0  0  0  0  0  0
    6.3925    1.8917    6.1602 H   0  0  0  0  0  0  0  0  0  0  0  0
    4.9584    4.5702    6.7290 H   0  0  0  0  0  0  0  0  0  0  0  0
    5.5029    3.3962    7.9551 H   0  0  0  0  0  0  0  0  0  0  0  0
    4.1961    2.9685    6.8207 H   0  0  0  0  0  0  0  0  0  0  0  0
    4.7568    1.1594    4.4206 H   0  0  0  0  0  0  0  0  0  0  0  0
    4.0123    1.3736    2.0738 H   0  0  0  0  0  0  0  0  0  0  0  0
    6.6765    3.4780   -1.2089 H   0  0  0  0  0  0  0  0  0  0  0  0
    6.9047    0.7348    0.1417 H   0  0  0  0  0  0  0  0  0  0  0  0
    7.0564    2.2796    0.9686 H   0  0  0  0  0  0  0  0  0  0  0  0
    9.0349    2.8769   -0.4641 H   0  0  0  0  0  0  0  0  0  0  0  0
    8.8740    1.3422   -1.3208 H   0  0  0  0  0  0  0  0  0  0  0  0
    9.4814    1.6288    1.7005 H   0  0  0  0  0  0  0  0  0  0  0  0
   10.6651    1.1979    0.4432 H   0  0  0  0  0  0  0  0  0  0  0  0
    9.3326    0.0862    0.8332 H   0  0  0  0  0  0  0  0  0  0  0  0
    7.2664    3.2165   -3.4753 H   0  0  0  0  0  0  0  0  0  0  0  0
    5.5048    2.9793   -3.5604 H   0  0  0  0  0  0  0  0  0  0  0  0
    7.6115    0.9650   -4.5707 H   0  0  0  0  0  0  0  0  0  0  0  0
    6.6264    2.0487   -5.5947 H   0  0  0  0  0  0  0  0  0  0  0  0
    5.8458    0.7417   -4.6602 H   0  0  0  0  0  0  0  0  0  0  0  0
  1  2  1  0
  1 22  1  0
  1 23  1  0
  1 24  1  0
  2  3  1  0
  2 25  1  0
  2 26  1  0
  3  4  1  0
  3 27  1  0
  3 28  1  0
  4  5  1  0
  4 29  1  0
  5  6  1  0
  5 15  1  0
  5 30  1  6
  6  7  1  0
  6 31  1  0
  6 32  1  0
  7  8  2  0
  7 14  1  0
  8  9  1  0
  8 33  1  0
  9 10  2  0
  9 34  1  0
 10 11  1  0
 10 13  1  0
 11 12  1  0
 11 35  1  0
 11 36  1  0
 12 37  1  0
 12 38  1  0
 12 39  1  0
 13 14  2  0
 13 40  1  0
 14 41  1  0
 15 16  1  0
 15 19  1  0
 15 42  1  6
 16 17  1  0
 16 43  1  0
 16 44  1  0
 17 18  1  0
 17 45  1  0
 17 46  1  0
 18 47  1  0
 18 48  1  0
 18 49  1  0
 19 20  1  0
 20 21  1  0
 20 50  1  0
 20 51  1  0
 21 52  1  0
 21 53  1  0
 21 54  1  0
M  END

