
     RDKit          3D

 58 58  0  0  0  0  0  0  0  0999 V2000
    3.4053    0.2567   -1.6412 C   0  0  0  0  0  0  0  0  0  0  0  0
    2.9293   -0.9320   -2.5019 C   0  0  1  0  0  0  0  0  0  0  0  0
    1.4564   -0.7143   -2.9070 C   0  0  0  0  0  0  0  0  0  0  0  0
    3.8018   -1.0210   -3.7713 C   0  0  0  0  0  0  0  0  0  0  0  0
    3.0930   -2.5520   -1.4984 Si  0  0  1  0  0  4  0  0  0  0  0  0
    2.1077   -2.5099    0.1106 C   0  0  0  0  0  0  0  0  0  0  0  0
    2.6018   -4.0760   -2.4972 C   0  0  0  0  0  0  0  0  0  0  0  0
    4.7466   -2.6439   -1.1302 O   0  0  0  0  0  0  0  0  0  0  0  0
    5.3773   -3.6400   -0.3821 C   0  0  0  0  0  0  0  0  0  0  0  0
    6.8602   -3.3982   -0.2888 C   0  0  0  0  0  0  0  0  0  0  0  0
    7.5314   -2.3655   -0.8536 C   0  0  0  0  0  0  0  0  0  0  0  0
    8.9565   -2.2898   -0.6624 C   0  0  0  0  0  0  0  0  0  0  0  0
    9.5704   -1.2538   -1.2409 O   0  0  0  0  0  0  0  0  0  0  0  0
   11.1971   -0.7026   -1.3300 Si  0  0  1  0  0  4  0  0  0  0  0  0
   11.8098   -0.3286    0.4097 C   0  0  0  0  0  0  0  0  0  0  0  0
   12.2475   -2.0298   -2.1531 C   0  0  0  0  0  0  0  0  0  0  0  0
   11.0388    0.8725   -2.4030 C   0  0  1  0  0  0  0  0  0  0  0  0
   10.0987    1.8803   -1.7093 C   0  0  0  0  0  0  0  0  0  0  0  0
   12.4310    1.5127   -2.5882 C   0  0  0  0  0  0  0  0  0  0  0  0
   10.4560    0.5030   -3.7831 C   0  0  0  0  0  0  0  0  0  0  0  0
    9.5907   -3.2580    0.0822 C   0  0  0  0  0  0  0  0  0  0  0  0
    8.8698   -4.3541    0.6806 C   0  0  0  0  0  0  0  0  0  0  0  0
    9.3025   -5.2565    1.3476 O   0  0  0  0  0  0  0  0  0  0  0  0
    7.4689   -4.3473    0.4378 O   0  0  0  0  0  0  0  0  0  0  0  0
    3.3464    1.1972   -2.2185 H   0  0  0  0  0  0  0  0  0  0  0  0
    4.4490    0.1292   -1.3136 H   0  0  0  0  0  0  0  0  0  0  0  0
    2.7851    0.3892   -0.7394 H   0  0  0  0  0  0  0  0  0  0  0  0
    1.3522    0.2203   -3.4873 H   0  0  0  0  0  0  0  0  0  0  0  0
    0.7917   -0.6272   -2.0315 H   0  0  0  0  0  0  0  0  0  0  0  0
    1.0728   -1.5321   -3.5394 H   0  0  0  0  0  0  0  0  0  0  0  0
    3.7419   -0.0787   -4.3456 H   0  0  0  0  0  0  0  0  0  0  0  0
    3.4749   -1.8323   -4.4424 H   0  0  0  0  0  0  0  0  0  0  0  0
    4.8609   -1.1966   -3.5255 H   0  0  0  0  0  0  0  0  0  0  0  0
    1.0282   -2.4033   -0.0860 H   0  0  0  0  0  0  0  0  0  0  0  0
    2.4180   -1.6737    0.7572 H   0  0  0  0  0  0  0  0  0  0  0  0
    2.2422   -3.4437    0.6817 H   0  0  0  0  0  0  0  0  0  0  0  0
    1.5429   -4.0303   -2.8005 H   0  0  0  0  0  0  0  0  0  0  0  0
    2.7292   -4.9963   -1.9031 H   0  0  0  0  0  0  0  0  0  0  0  0
    3.2111   -4.1787   -3.4092 H   0  0  0  0  0  0  0  0  0  0  0  0
    5.2342   -4.6497   -0.8192 H   0  0  0  0  0  0  0  0  0  0  0  0
    4.9862   -3.6984    0.6544 H   0  0  0  0  0  0  0  0  0  0  0  0
    7.0022   -1.6153   -1.4359 H   0  0  0  0  0  0  0  0  0  0  0  0
   11.8835   -1.2421    1.0198 H   0  0  0  0  0  0  0  0  0  0  0  0
   11.1364    0.3693    0.9317 H   0  0  0  0  0  0  0  0  0  0  0  0
   12.8124    0.1291    0.3765 H   0  0  0  0  0  0  0  0  0  0  0  0
   12.3209   -2.9348   -1.5304 H   0  0  0  0  0  0  0  0  0  0  0  0
   13.2725   -1.6609   -2.3229 H   0  0  0  0  0  0  0  0  0  0  0  0
   11.8291   -2.3269   -3.1276 H   0  0  0  0  0  0  0  0  0  0  0  0
   10.4916    2.2106   -0.7337 H   0  0  0  0  0  0  0  0  0  0  0  0
    9.0974    1.4534   -1.5419 H   0  0  0  0  0  0  0  0  0  0  0  0
    9.9778    2.7833   -2.3344 H   0  0  0  0  0  0  0  0  0  0  0  0
   12.8841    1.8113   -1.6283 H   0  0  0  0  0  0  0  0  0  0  0  0
   12.3528    2.4247   -3.2069 H   0  0  0  0  0  0  0  0  0  0  0  0
   13.1373    0.8364   -3.0975 H   0  0  0  0  0  0  0  0  0  0  0  0
    9.4674    0.0263   -3.6925 H   0  0  0  0  0  0  0  0  0  0  0  0
   11.1125   -0.1856   -4.3398 H   0  0  0  0  0  0  0  0  0  0  0  0
   10.3351    1.4100   -4.4024 H   0  0  0  0  0  0  0  0  0  0  0  0
   10.6647   -3.2520    0.2607 H   0  0  0  0  0  0  0  0  0  0  0  0
  2  1  1  1
  1 25  1  0
  1 26  1  0
  1 27  1  0
  2  3  1  0
  2  4  1  0
  2  5  1  0
  3 28  1  0
  3 29  1  0
  3 30  1  0
  4 31  1  0
  4 32  1  0
  4 33  1  0
  5  6  1  0
  5  7  1  0
  5  8  1  1
  6 34  1  0
  6 35  1  0
  6 36  1  0
  7 37  1  0
  7 38  1  0
  7 39  1  0
  8  9  1  0
  9 10  1  0
  9 40  1  0
  9 41  1  0
 10 11  2  0
 10 24  1  0
 11 12  1  0
 11 42  1  0
 12 13  1  0
 12 21  2  0
 14 13  1  1
 14 15  1  0
 14 16  1  0
 14 17  1  0
 15 43  1  0
 15 44  1  0
 15 45  1  0
 16 46  1  0
 16 47  1  0
 16 48  1  0
 17 18  1  1
 17 19  1  0
 17 20  1  0
 18 49  1  0
 18 50  1  0
 18 51  1  0
 19 52  1  0
 19 53  1  0
 19 54  1  0
 20 55  1  0
 20 56  1  0
 20 57  1  0
 21 22  1  0
 21 58  1  0
 22 23  2  0
 22 24  1  0
M  END

