
     RDKit          3D

 41 42  0  0  0  0  0  0  0  0999 V2000
    1.9279   -1.4431   -1.0796 C   0  0  0  0  0  0  0  0  0  0  0  0
    2.3906   -0.4985    0.0380 C   0  0  1  0  0  0  0  0  0  0  0  0
    1.2807    0.4941    0.4766 C   0  0  0  0  0  0  0  0  0  0  0  0
    0.8079    1.4318   -0.5970 C   0  0  0  0  0  0  0  0  0  0  0  0
   -0.4217    1.4904   -1.2101 C   0  0  0  0  0  0  0  0  0  0  0  0
   -0.5183    2.5116   -2.2062 C   0  0  0  0  0  0  0  0  0  0  0  0
    0.6438    3.2241   -2.3457 C   0  0  0  0  0  0  0  0  0  0  0  0
    1.8670    2.6559   -1.2585 S   0  0  0  0  0  0  0  0  0  0  0  0
    2.9357   -1.2143    1.2032 N   0  0  0  0  0  0  0  0  0  0  0  0
    2.1396   -2.2958    1.7622 C   0  0  0  0  0  0  0  0  0  0  0  0
    4.3126   -1.2975    1.4117 C   0  0  0  0  0  0  0  0  0  0  0  0
    5.0332   -0.1746    0.9923 N   0  0  0  0  0  0  0  0  0  0  0  0
    4.8112   -2.3550    1.9428 N   0  0  0  0  0  0  0  0  0  0  0  0
    6.1939   -2.4319    2.3298 C   0  0  1  0  0  0  0  0  0  0  0  0
    6.4226   -3.3538    3.5406 C   0  0  0  0  0  0  0  0  0  0  0  0
    7.9351   -3.6292    3.5325 C   0  0  0  0  0  0  0  0  0  0  0  0
    8.3600   -3.5664    2.0338 C   0  0  0  0  0  0  0  0  0  0  0  0
    7.1133   -3.0745    1.2634 C   0  0  0  0  0  0  0  0  0  0  0  0
    1.6351   -0.8673   -1.9703 H   0  0  0  0  0  0  0  0  0  0  0  0
    1.0597   -2.0489   -0.7752 H   0  0  0  0  0  0  0  0  0  0  0  0
    2.7403   -2.1291   -1.3650 H   0  0  0  0  0  0  0  0  0  0  0  0
    3.2182    0.0974   -0.3690 H   0  0  0  0  0  0  0  0  0  0  0  0
    1.6665    1.0626    1.3399 H   0  0  0  0  0  0  0  0  0  0  0  0
    0.4033   -0.0644    0.8422 H   0  0  0  0  0  0  0  0  0  0  0  0
   -1.2405    0.8167   -0.9492 H   0  0  0  0  0  0  0  0  0  0  0  0
   -1.4171    2.7080   -2.7933 H   0  0  0  0  0  0  0  0  0  0  0  0
    0.8532    4.0525   -3.0210 H   0  0  0  0  0  0  0  0  0  0  0  0
    1.0758   -2.0172    1.7415 H   0  0  0  0  0  0  0  0  0  0  0  0
    2.4407   -2.4734    2.8025 H   0  0  0  0  0  0  0  0  0  0  0  0
    2.2700   -3.2515    1.2237 H   0  0  0  0  0  0  0  0  0  0  0  0
    4.6095    0.7250    1.1994 H   0  0  0  0  0  0  0  0  0  0  0  0
    6.0175   -0.1971    1.2326 H   0  0  0  0  0  0  0  0  0  0  0  0
    6.6191   -1.4337    2.5939 H   0  0  0  0  0  0  0  0  0  0  0  0
    5.8456   -4.2776    3.3659 H   0  0  0  0  0  0  0  0  0  0  0  0
    6.0584   -2.9146    4.4829 H   0  0  0  0  0  0  0  0  0  0  0  0
    8.1881   -4.5917    4.0034 H   0  0  0  0  0  0  0  0  0  0  0  0
    8.4649   -2.8523    4.1085 H   0  0  0  0  0  0  0  0  0  0  0  0
    8.6962   -4.5466    1.6613 H   0  0  0  0  0  0  0  0  0  0  0  0
    9.2102   -2.8784    1.8999 H   0  0  0  0  0  0  0  0  0  0  0  0
    6.5579   -3.9203    0.8256 H   0  0  0  0  0  0  0  0  0  0  0  0
    7.3533   -2.3868    0.4362 H   0  0  0  0  0  0  0  0  0  0  0  0
  1  2  1  0
  1 19  1  0
  1 20  1  0
  1 21  1  0
  2  3  1  0
  2  9  1  0
  2 22  1  6
  3  4  1  0
  3 23  1  0
  3 24  1  0
  4  5  2  0
  4  8  1  0
  5  6  1  0
  5 25  1  0
  6  7  2  0
  6 26  1  0
  7  8  1  0
  7 27  1  0
  9 10  1  0
  9 11  1  0
 10 28  1  0
 10 29  1  0
 10 30  1  0
 11 12  1  0
 11 13  2  0
 12 31  1  0
 12 32  1  0
 13 14  1  0
 14 15  1  0
 14 18  1  0
 14 33  1  1
 15 16  1  0
 15 34  1  0
 15 35  1  0
 16 17  1  0
 16 36  1  0
 16 37  1  0
 17 18  1  0
 17 38  1  0
 17 39  1  0
 18 40  1  0
 18 41  1  0
M  END

