
     RDKit          3D

 42 42  0  0  0  0  0  0  0  0999 V2000
    1.3398    0.4283   -1.2475 C   0  0  0  0  0  0  0  0  0  0  0  0
    2.6996    0.0228   -0.6788 C   0  0  0  0  0  0  0  0  0  0  0  0
    3.0482    0.7384    0.6261 C   0  0  0  0  0  0  0  0  0  0  0  0
    4.3375    0.3118    1.1454 N   0  0  0  0  0  0  0  0  0  0  0  0
    4.7860    0.9764    2.3668 C   0  0  1  0  0  0  0  0  0  0  0  0
    4.1196    0.3720    3.6354 C   0  0  0  0  0  0  0  0  0  0  0  0
    4.4855   -1.0357    4.0473 C   0  0  0  0  0  0  0  0  0  0  0  0
    4.1043   -2.1575    3.2837 C   0  0  0  0  0  0  0  0  0  0  0  0
    4.4647   -3.4227    3.7401 C   0  0  0  0  0  0  0  0  0  0  0  0
    5.1461   -3.6533    4.8665 N   0  0  0  0  0  0  0  0  0  0  0  0
    5.5126   -2.5961    5.6009 C   0  0  0  0  0  0  0  0  0  0  0  0
    6.2495   -2.8604    6.7358 N   0  0  0  0  0  0  0  0  0  0  0  0
    5.1981   -1.2694    5.2234 C   0  0  0  0  0  0  0  0  0  0  0  0
    6.3371    1.0533    2.4416 C   0  0  1  0  0  0  0  0  0  0  0  0
    7.0525   -0.2540    2.0622 C   0  0  0  0  0  0  0  0  0  0  0  0
    6.8955    2.2263    1.6018 C   0  0  0  0  0  0  0  0  0  0  0  0
    6.6310    3.6257    2.1618 C   0  0  0  0  0  0  0  0  0  0  0  0
    1.1241   -0.1022   -2.1882 H   0  0  0  0  0  0  0  0  0  0  0  0
    1.2957    1.5099   -1.4586 H   0  0  0  0  0  0  0  0  0  0  0  0
    0.5243    0.1965   -0.5419 H   0  0  0  0  0  0  0  0  0  0  0  0
    3.4886    0.2334   -1.4252 H   0  0  0  0  0  0  0  0  0  0  0  0
    2.7321   -1.0659   -0.5030 H   0  0  0  0  0  0  0  0  0  0  0  0
    2.2679    0.5137    1.3755 H   0  0  0  0  0  0  0  0  0  0  0  0
    2.9982    1.8416    0.4657 H   0  0  0  0  0  0  0  0  0  0  0  0
    5.0407    0.4023    0.4153 H   0  0  0  0  0  0  0  0  0  0  0  0
    4.4279    2.0294    2.3662 H   0  0  0  0  0  0  0  0  0  0  0  0
    3.0276    0.4148    3.4819 H   0  0  0  0  0  0  0  0  0  0  0  0
    4.3320    1.0568    4.4726 H   0  0  0  0  0  0  0  0  0  0  0  0
    3.5608   -2.0340    2.3474 H   0  0  0  0  0  0  0  0  0  0  0  0
    4.1809   -4.3115    3.1625 H   0  0  0  0  0  0  0  0  0  0  0  0
    6.2397   -3.8291    7.0340 H   0  0  0  0  0  0  0  0  0  0  0  0
    6.2583   -2.1701    7.4753 H   0  0  0  0  0  0  0  0  0  0  0  0
    5.5147   -0.4337    5.8543 H   0  0  0  0  0  0  0  0  0  0  0  0
    6.5827    1.2689    3.4976 H   0  0  0  0  0  0  0  0  0  0  0  0
    6.9414   -0.4859    0.9901 H   0  0  0  0  0  0  0  0  0  0  0  0
    6.6766   -1.1170    2.6255 H   0  0  0  0  0  0  0  0  0  0  0  0
    8.1324   -0.1618    2.2614 H   0  0  0  0  0  0  0  0  0  0  0  0
    6.4992    2.1578    0.5710 H   0  0  0  0  0  0  0  0  0  0  0  0
    7.9861    2.0885    1.5031 H   0  0  0  0  0  0  0  0  0  0  0  0
    5.5553    3.8508    2.2405 H   0  0  0  0  0  0  0  0  0  0  0  0
    7.0787    4.4006    1.5190 H   0  0  0  0  0  0  0  0  0  0  0  0
    7.0665    3.7389    3.1690 H   0  0  0  0  0  0  0  0  0  0  0  0
  1  2  1  0
  1 18  1  0
  1 19  1  0
  1 20  1  0
  2  3  1  0
  2 21  1  0
  2 22  1  0
  3  4  1  0
  3 23  1  0
  3 24  1  0
  4  5  1  0
  4 25  1  0
  5  6  1  0
  5 14  1  0
  5 26  1  6
  6  7  1  0
  6 27  1  0
  6 28  1  0
  7  8  2  0
  7 13  1  0
  8  9  1  0
  8 29  1  0
  9 10  2  0
  9 30  1  0
 10 11  1  0
 11 12  1  0
 11 13  2  0
 12 31  1  0
 12 32  1  0
 13 33  1  0
 14 15  1  0
 14 16  1  0
 14 34  1  1
 15 35  1  0
 15 36  1  0
 15 37  1  0
 16 17  1  0
 16 38  1  0
 16 39  1  0
 17 40  1  0
 17 41  1  0
 17 42  1  0
M  END

