
     RDKit          3D

 64 71  0  0  0  0  0  0  0  0999 V2000
   -5.7786    0.1938    4.2047 C   0  0  0  0  0  0  0  0  0  0  0  0
   -4.7186    0.1475    3.1296 C   0  0  0  0  0  0  0  0  0  0  0  0
   -3.3511    0.1633    3.4847 C   0  0  0  0  0  0  0  0  0  0  0  0
   -2.2965    0.1234    2.5662 C   0  0  0  0  0  0  0  0  0  0  0  0
   -0.8732    0.1476    3.0718 C   0  0  0  0  0  0  0  0  0  0  0  0
   -2.6648    0.0628    1.2004 C   0  0  0  0  0  0  0  0  0  0  0  0
   -4.0303    0.0470    0.8151 C   0  0  0  0  0  0  0  0  0  0  0  0
   -5.0497    0.0891    1.7782 C   0  0  0  0  0  0  0  0  0  0  0  0
   -4.0688   -0.0147   -0.6282 C   0  0  0  0  0  0  0  0  0  0  0  0
   -5.1382   -0.0531   -1.5356 C   0  0  0  0  0  0  0  0  0  0  0  0
   -4.8797   -0.1131   -2.9027 C   0  0  0  0  0  0  0  0  0  0  0  0
   -5.9955   -0.1560   -3.9199 C   0  0  0  0  0  0  0  0  0  0  0  0
   -3.5330   -0.1338   -3.3301 C   0  0  0  0  0  0  0  0  0  0  0  0
   -2.4310   -0.0974   -2.4690 C   0  0  0  0  0  0  0  0  0  0  0  0
   -1.0366   -0.1258   -3.0496 C   0  0  0  0  0  0  0  0  0  0  0  0
   -2.7259   -0.0355   -1.0856 C   0  0  0  0  0  0  0  0  0  0  0  0
   -1.8779    0.0125    0.0356 N   0  0  0  0  0  0  0  0  0  0  0  0
   -0.4498    0.0054   -0.0023 C   0  0  0  0  0  0  0  0  0  0  0  0
    0.2419    1.2199   -0.0890 C   0  0  0  0  0  0  0  0  0  0  0  0
    1.6388    1.1950   -0.1260 C   0  0  0  0  0  0  0  0  0  0  0  0
    2.3699   -0.0088   -0.0772 C   0  0  0  0  0  0  0  0  0  0  0  0
    1.6304   -1.2052    0.0107 C   0  0  0  0  0  0  0  0  0  0  0  0
    0.2332   -1.2161    0.0477 C   0  0  0  0  0  0  0  0  0  0  0  0
    2.2579   -2.4048    0.0621 O   0  0  0  0  0  0  0  0  0  0  0  0
    3.6192   -2.5375    0.0415 C   0  0  0  0  0  0  0  0  0  0  0  0
    4.0597   -3.8693    0.1121 C   0  0  0  0  0  0  0  0  0  0  0  0
    5.4209   -4.1412    0.1027 C   0  0  0  0  0  0  0  0  0  0  0  0
    6.3474   -3.0885    0.0237 C   0  0  0  0  0  0  0  0  0  0  0  0
    5.8938   -1.7773   -0.0465 C   0  0  0  0  0  0  0  0  0  0  0  0
    4.5162   -1.4419   -0.0424 C   0  0  0  0  0  0  0  0  0  0  0  0
    3.8971   -0.0164   -0.1176 B   0  0  0  0  0  0  0  0  0  0  0  0
    4.5256    1.4028   -0.2258 C   0  0  0  0  0  0  0  0  0  0  0  0
    5.9048    1.7243   -0.2945 C   0  0  0  0  0  0  0  0  0  0  0  0
    6.3672    3.0309   -0.3890 C   0  0  0  0  0  0  0  0  0  0  0  0
    5.4483    4.0928   -0.4194 C   0  0  0  0  0  0  0  0  0  0  0  0
    4.0859    3.8346   -0.3569 C   0  0  0  0  0  0  0  0  0  0  0  0
    3.6364    2.5073   -0.2626 C   0  0  0  0  0  0  0  0  0  0  0  0
    2.2747    2.3882   -0.2111 O   0  0  0  0  0  0  0  0  0  0  0  0
   -5.6916    1.1056    4.8200 H   0  0  0  0  0  0  0  0  0  0  0  0
   -5.6951   -0.6647    4.8929 H   0  0  0  0  0  0  0  0  0  0  0  0
   -6.7908    0.1780    3.7736 H   0  0  0  0  0  0  0  0  0  0  0  0
   -3.0932    0.2104    4.5477 H   0  0  0  0  0  0  0  0  0  0  0  0
   -0.8632    0.2064    4.1698 H   0  0  0  0  0  0  0  0  0  0  0  0
   -0.3081    1.0100    2.6854 H   0  0  0  0  0  0  0  0  0  0  0  0
   -0.3116   -0.7535    2.7800 H   0  0  0  0  0  0  0  0  0  0  0  0
   -6.0976    0.0762    1.4663 H   0  0  0  0  0  0  0  0  0  0  0  0
   -6.1680   -0.0363   -1.1685 H   0  0  0  0  0  0  0  0  0  0  0  0
   -5.9449    0.7012   -4.6129 H   0  0  0  0  0  0  0  0  0  0  0  0
   -6.9832   -0.1351   -3.4356 H   0  0  0  0  0  0  0  0  0  0  0  0
   -5.9454   -1.0690   -4.5376 H   0  0  0  0  0  0  0  0  0  0  0  0
   -3.3322   -0.1818   -4.4053 H   0  0  0  0  0  0  0  0  0  0  0  0
   -1.0853   -0.1826   -4.1467 H   0  0  0  0  0  0  0  0  0  0  0  0
   -0.4569    0.7726   -2.7866 H   0  0  0  0  0  0  0  0  0  0  0  0
   -0.4550   -0.9910   -2.6953 H   0  0  0  0  0  0  0  0  0  0  0  0
   -0.2952    2.1676   -0.1273 H   0  0  0  0  0  0  0  0  0  0  0  0
   -0.3105   -2.1584    0.1147 H   0  0  0  0  0  0  0  0  0  0  0  0
    3.3138   -4.6637    0.1740 H   0  0  0  0  0  0  0  0  0  0  0  0
    5.7669   -5.1765    0.1579 H   0  0  0  0  0  0  0  0  0  0  0  0
    7.4191   -3.2998    0.0177 H   0  0  0  0  0  0  0  0  0  0  0  0
    6.6330   -0.9787   -0.1052 H   0  0  0  0  0  0  0  0  0  0  0  0
    6.6380    0.9183   -0.2746 H   0  0  0  0  0  0  0  0  0  0  0  0
    7.4398    3.2315   -0.4397 H   0  0  0  0  0  0  0  0  0  0  0  0
    5.8013    5.1247   -0.4932 H   0  0  0  0  0  0  0  0  0  0  0  0
    3.3458    4.6365   -0.3796 H   0  0  0  0  0  0  0  0  0  0  0  0
  1  2  1  0
  1 39  1  0
  1 40  1  0
  1 41  1  0
  2  3  2  0
  2  8  1  0
  3  4  1  0
  3 42  1  0
  4  5  1  0
  4  6  2  0
  5 43  1  0
  5 44  1  0
  5 45  1  0
  6  7  1  0
  6 17  1  0
  7  8  2  0
  7  9  1  0
  8 46  1  0
  9 10  2  0
  9 16  1  0
 10 11  1  0
 10 47  1  0
 11 12  1  0
 11 13  2  0
 12 48  1  0
 12 49  1  0
 12 50  1  0
 13 14  1  0
 13 51  1  0
 14 15  1  0
 14 16  2  0
 15 52  1  0
 15 53  1  0
 15 54  1  0
 16 17  1  0
 17 18  1  0
 18 19  2  0
 18 23  1  0
 19 20  1  0
 19 55  1  0
 20 21  2  0
 20 38  1  0
 21 22  1  0
 21 31  1  0
 22 23  2  0
 22 24  1  0
 23 56  1  0
 24 25  1  0
 25 26  2  0
 25 30  1  0
 26 27  1  0
 26 57  1  0
 27 28  2  0
 27 58  1  0
 28 29  1  0
 28 59  1  0
 29 30  2  0
 29 60  1  0
 30 31  1  0
 31 32  1  0
 32 33  1  0
 32 37  2  0
 33 34  2  0
 33 61  1  0
 34 35  1  0
 34 62  1  0
 35 36  2  0
 35 63  1  0
 36 37  1  0
 36 64  1  0
 37 38  1  0
M  END

