
     RDKit          3D

 85 93  0  0  0  0  0  0  0  0999 V2000
   -2.8264   -3.3720    0.9065 C   0  0  0  0  0  0  0  0  0  0  0  0
   -3.4578   -2.2121    1.7062 C   0  0  2  0  0  0  0  0  0  0  0  0
   -2.6685   -1.9765    3.0120 C   0  0  0  0  0  0  0  0  0  0  0  0
   -4.9404   -2.4717    1.9892 C   0  0  0  0  0  0  0  0  0  0  0  0
   -5.5217   -3.5055    2.7189 C   0  0  0  0  0  0  0  0  0  0  0  0
   -6.9175   -3.5508    2.8532 C   0  0  0  0  0  0  0  0  0  0  0  0
   -7.7192   -2.5675    2.2602 C   0  0  0  0  0  0  0  0  0  0  0  0
   -7.1421   -1.5256    1.5256 C   0  0  0  0  0  0  0  0  0  0  0  0
   -5.7499   -1.4796    1.3912 C   0  0  0  0  0  0  0  0  0  0  0  0
   -4.8752   -0.5285    0.6952 C   0  0  0  0  0  0  0  0  0  0  0  0
   -5.1518    0.6196   -0.0460 C   0  0  0  0  0  0  0  0  0  0  0  0
   -4.1297    1.3845   -0.6288 C   0  0  0  0  0  0  0  0  0  0  0  0
   -2.7878    0.9651   -0.4497 C   0  0  0  0  0  0  0  0  0  0  0  0
   -2.5080   -0.2018    0.3033 C   0  0  0  0  0  0  0  0  0  0  0  0
   -3.5393   -0.9359    0.8662 C   0  0  0  0  0  0  0  0  0  0  0  0
   -1.7274    1.6967   -1.0126 N   0  0  0  0  0  0  0  0  0  0  0  0
   -0.3823    1.2440   -0.8095 C   0  0  0  0  0  0  0  0  0  0  0  0
    0.3536    1.6911    0.2963 C   0  0  0  0  0  0  0  0  0  0  0  0
    1.6615    1.2514    0.4940 C   0  0  0  0  0  0  0  0  0  0  0  0
    2.2575    0.3560   -0.4109 C   0  0  0  0  0  0  0  0  0  0  0  0
    3.6533   -0.1129   -0.2005 C   0  0  0  0  0  0  0  0  0  0  0  0
    4.3174    0.3452    0.8672 N   0  0  0  0  0  0  0  0  0  0  0  0
    5.5721   -0.0999    1.0214 C   0  0  0  0  0  0  0  0  0  0  0  0
    6.3493    0.3821    2.1921 C   0  0  0  0  0  0  0  0  0  0  0  0
    7.6698   -0.0550    2.3986 C   0  0  0  0  0  0  0  0  0  0  0  0
    8.3987    0.3986    3.4981 C   0  0  0  0  0  0  0  0  0  0  0  0
    7.8194    1.2933    4.4045 C   0  0  0  0  0  0  0  0  0  0  0  0
    6.5060    1.7330    4.2062 C   0  0  0  0  0  0  0  0  0  0  0  0
    5.7745    1.2813    3.1077 C   0  0  0  0  0  0  0  0  0  0  0  0
    6.1628   -0.9554    0.1774 N   0  0  0  0  0  0  0  0  0  0  0  0
    5.4308   -1.3671   -0.8656 C   0  0  0  0  0  0  0  0  0  0  0  0
    6.0481   -2.3177   -1.8260 C   0  0  0  0  0  0  0  0  0  0  0  0
    7.3673   -2.7658   -1.6355 C   0  0  0  0  0  0  0  0  0  0  0  0
    7.9458   -3.6585   -2.5379 C   0  0  0  0  0  0  0  0  0  0  0  0
    7.2156   -4.1148   -3.6408 C   0  0  0  0  0  0  0  0  0  0  0  0
    5.9024   -3.6737   -3.8375 C   0  0  0  0  0  0  0  0  0  0  0  0
    5.3211   -2.7811   -2.9369 C   0  0  0  0  0  0  0  0  0  0  0  0
    4.1711   -0.9684   -1.0898 N   0  0  0  0  0  0  0  0  0  0  0  0
    1.5145   -0.0888   -1.5181 C   0  0  0  0  0  0  0  0  0  0  0  0
    0.2067    0.3516   -1.7155 C   0  0  0  0  0  0  0  0  0  0  0  0
   -1.9482    2.8622   -1.7680 C   0  0  0  0  0  0  0  0  0  0  0  0
   -0.8517    3.5658   -2.3143 C   0  0  0  0  0  0  0  0  0  0  0  0
   -1.0405    4.7217   -3.0657 C   0  0  0  0  0  0  0  0  0  0  0  0
   -2.3299    5.2060   -3.2918 C   0  0  0  0  0  0  0  0  0  0  0  0
   -3.4114    4.5106   -2.7522 C   0  0  0  0  0  0  0  0  0  0  0  0
   -3.2592    3.3421   -1.9897 C   0  0  0  0  0  0  0  0  0  0  0  0
   -4.5046    2.6383   -1.4332 C   0  0  2  0  0  0  0  0  0  0  0  0
   -5.2695    3.6229   -0.5087 C   0  0  0  0  0  0  0  0  0  0  0  0
   -5.4212    2.2254   -2.6158 C   0  0  0  0  0  0  0  0  0  0  0  0
   -3.3776   -3.5554   -0.0283 H   0  0  0  0  0  0  0  0  0  0  0  0
   -1.7793   -3.1446    0.6487 H   0  0  0  0  0  0  0  0  0  0  0  0
   -2.8331   -4.3028    1.4965 H   0  0  0  0  0  0  0  0  0  0  0  0
   -1.6184   -1.7231    2.7936 H   0  0  0  0  0  0  0  0  0  0  0  0
   -3.1054   -1.1527    3.5965 H   0  0  0  0  0  0  0  0  0  0  0  0
   -2.6725   -2.8821    3.6400 H   0  0  0  0  0  0  0  0  0  0  0  0
   -4.9043   -4.2783    3.1860 H   0  0  0  0  0  0  0  0  0  0  0  0
   -7.3822   -4.3588    3.4242 H   0  0  0  0  0  0  0  0  0  0  0  0
   -8.8056   -2.6143    2.3724 H   0  0  0  0  0  0  0  0  0  0  0  0
   -7.7740   -0.7612    1.0655 H   0  0  0  0  0  0  0  0  0  0  0  0
   -6.1899    0.9325   -0.1768 H   0  0  0  0  0  0  0  0  0  0  0  0
   -1.4750   -0.5201    0.4382 H   0  0  0  0  0  0  0  0  0  0  0  0
   -0.1109    2.3868    0.9982 H   0  0  0  0  0  0  0  0  0  0  0  0
    2.2402    1.5953    1.3514 H   0  0  0  0  0  0  0  0  0  0  0  0
    8.1095   -0.7520    1.6850 H   0  0  0  0  0  0  0  0  0  0  0  0
    9.4244    0.0531    3.6499 H   0  0  0  0  0  0  0  0  0  0  0  0
    8.3916    1.6481    5.2657 H   0  0  0  0  0  0  0  0  0  0  0  0
    6.0503    2.4319    4.9122 H   0  0  0  0  0  0  0  0  0  0  0  0
    4.7504    1.6166    2.9420 H   0  0  0  0  0  0  0  0  0  0  0  0
    7.9254   -2.4027   -0.7723 H   0  0  0  0  0  0  0  0  0  0  0  0
    8.9718   -4.0009   -2.3813 H   0  0  0  0  0  0  0  0  0  0  0  0
    7.6701   -4.8143   -4.3473 H   0  0  0  0  0  0  0  0  0  0  0  0
    5.3291   -4.0281   -4.6978 H   0  0  0  0  0  0  0  0  0  0  0  0
    4.2988   -2.4299   -3.0791 H   0  0  0  0  0  0  0  0  0  0  0  0
    1.9793   -0.7827   -2.2187 H   0  0  0  0  0  0  0  0  0  0  0  0
   -0.3716    0.0077   -2.5756 H   0  0  0  0  0  0  0  0  0  0  0  0
    0.1606    3.2010   -2.1471 H   0  0  0  0  0  0  0  0  0  0  0  0
   -0.1708    5.2426   -3.4743 H   0  0  0  0  0  0  0  0  0  0  0  0
   -2.4945    6.1118   -3.8795 H   0  0  0  0  0  0  0  0  0  0  0  0
   -4.4186    4.8930   -2.9317 H   0  0  0  0  0  0  0  0  0  0  0  0
   -4.6397    3.9299    0.3400 H   0  0  0  0  0  0  0  0  0  0  0  0
   -5.5699    4.5300   -1.0548 H   0  0  0  0  0  0  0  0  0  0  0  0
   -6.1832    3.1616   -0.1042 H   0  0  0  0  0  0  0  0  0  0  0  0
   -4.9003    1.5255   -3.2868 H   0  0  0  0  0  0  0  0  0  0  0  0
   -6.3376    1.7331   -2.2566 H   0  0  0  0  0  0  0  0  0  0  0  0
   -5.7256    3.1014   -3.2084 H   0  0  0  0  0  0  0  0  0  0  0  0
  2  1  1  6
  1 50  1  0
  1 51  1  0
  1 52  1  0
  2  3  1  0
  2  4  1  0
  2 15  1  0
  3 53  1  0
  3 54  1  0
  3 55  1  0
  4  5  2  0
  4  9  1  0
  5  6  1  0
  5 56  1  0
  6  7  2  0
  6 57  1  0
  7  8  1  0
  7 58  1  0
  8  9  2  0
  8 59  1  0
  9 10  1  0
 10 11  2  0
 10 15  1  0
 11 12  1  0
 11 60  1  0
 12 13  2  0
 12 47  1  0
 13 14  1  0
 13 16  1  0
 14 15  2  0
 14 61  1  0
 16 17  1  0
 16 41  1  0
 17 18  2  0
 17 40  1  0
 18 19  1  0
 18 62  1  0
 19 20  2  0
 19 63  1  0
 20 21  1  0
 20 39  1  0
 21 22  2  0
 21 38  1  0
 22 23  1  0
 23 24  1  0
 23 30  2  0
 24 25  2  0
 24 29  1  0
 25 26  1  0
 25 64  1  0
 26 27  2  0
 26 65  1  0
 27 28  1  0
 27 66  1  0
 28 29  2  0
 28 67  1  0
 29 68  1  0
 30 31  1  0
 31 32  1  0
 31 38  2  0
 32 33  2  0
 32 37  1  0
 33 34  1  0
 33 69  1  0
 34 35  2  0
 34 70  1  0
 35 36  1  0
 35 71  1  0
 36 37  2  0
 36 72  1  0
 37 73  1  0
 39 40  2  0
 39 74  1  0
 40 75  1  0
 41 42  1  0
 41 46  2  0
 42 43  2  0
 42 76  1  0
 43 44  1  0
 43 77  1  0
 44 45  2  0
 44 78  1  0
 45 46  1  0
 45 79  1  0
 46 47  1  0
 47 48  1  1
 47 49  1  0
 48 80  1  0
 48 81  1  0
 48 82  1  0
 49 83  1  0
 49 84  1  0
 49 85  1  0
M  END

