
     RDKit          3D

 53 55  0  0  0  0  0  0  0  0999 V2000
    2.4570    0.5439   -1.5248 C   0  0  0  0  0  0  0  0  0  0  0  0
    3.6532   -0.0027   -0.8163 C   0  0  0  0  0  0  0  0  0  0  0  0
    4.7910    0.6608   -0.7584 N   0  0  0  0  0  0  0  0  0  0  0  0
    5.6393   -0.1149   -0.0408 N   0  0  0  0  0  0  0  0  0  0  0  0
    7.2793    0.5160    0.1377 S   0  0  1  0  0  0  0  0  0  0  0  0
    7.9346   -0.4071    1.0593 O   0  0  0  0  0  0  0  0  0  0  0  0
    7.7679    0.7406   -1.2137 O   0  0  0  0  0  0  0  0  0  0  0  0
    7.0059    2.0730    0.9348 C   0  0  0  0  0  0  0  0  0  0  0  0
    7.0439    2.1455    2.3352 C   0  0  0  0  0  0  0  0  0  0  0  0
    6.8424    3.3701    2.9544 C   0  0  0  0  0  0  0  0  0  0  0  0
    6.6015    4.5317    2.1891 C   0  0  0  0  0  0  0  0  0  0  0  0
    6.4333    5.6649    2.8942 O   0  0  0  0  0  0  0  0  0  0  0  0
    6.1478    6.9289    2.2660 C   0  0  1  0  0  0  0  0  0  0  0  0
    4.6643    7.0288    1.9201 C   0  0  0  0  0  0  0  0  0  0  0  0
    6.6014    7.9962    3.2522 C   0  0  0  0  0  0  0  0  0  0  0  0
    6.5691    4.4406    0.7833 C   0  0  0  0  0  0  0  0  0  0  0  0
    6.7746    3.2114    0.1590 C   0  0  0  0  0  0  0  0  0  0  0  0
    5.0842   -1.3005    0.3797 C   0  0  0  0  0  0  0  0  0  0  0  0
    5.7920   -2.3442    1.1807 C   0  0  0  0  0  0  0  0  0  0  0  0
    3.7835   -1.2499   -0.1209 C   0  0  0  0  0  0  0  0  0  0  0  0
    2.4742   -2.4190    0.0843 S   0  0  1  0  0  0  0  0  0  0  0  0
    2.9756   -3.5400    0.8919 O   0  0  0  0  0  0  0  0  0  0  0  0
    1.2682   -1.7003    0.5078 O   0  0  0  0  0  0  0  0  0  0  0  0
    2.1822   -2.9196   -1.4946 N   0  0  0  0  0  0  0  0  0  0  0  0
    3.1027   -3.9137   -2.0830 C   0  0  0  0  0  0  0  0  0  0  0  0
    2.2869   -4.4963   -3.2417 C   0  0  0  0  0  0  0  0  0  0  0  0
    0.8566   -4.4947   -2.6851 C   0  0  0  0  0  0  0  0  0  0  0  0
    0.7778   -3.1723   -1.9102 C   0  0  0  0  0  0  0  0  0  0  0  0
    2.6750    1.5544   -1.8955 H   0  0  0  0  0  0  0  0  0  0  0  0
    1.5885    0.5713   -0.8502 H   0  0  0  0  0  0  0  0  0  0  0  0
    2.1849   -0.1001   -2.3763 H   0  0  0  0  0  0  0  0  0  0  0  0
    7.2451    1.2489    2.9238 H   0  0  0  0  0  0  0  0  0  0  0  0
    6.8731    3.4665    4.0411 H   0  0  0  0  0  0  0  0  0  0  0  0
    6.7561    7.0122    1.3480 H   0  0  0  0  0  0  0  0  0  0  0  0
    4.0553    6.9516    2.8345 H   0  0  0  0  0  0  0  0  0  0  0  0
    4.3497    6.2305    1.2316 H   0  0  0  0  0  0  0  0  0  0  0  0
    4.4487    7.9962    1.4403 H   0  0  0  0  0  0  0  0  0  0  0  0
    6.0387    7.9119    4.1950 H   0  0  0  0  0  0  0  0  0  0  0  0
    6.4328    9.0003    2.8340 H   0  0  0  0  0  0  0  0  0  0  0  0
    7.6724    7.8864    3.4781 H   0  0  0  0  0  0  0  0  0  0  0  0
    6.3849    5.3191    0.1663 H   0  0  0  0  0  0  0  0  0  0  0  0
    6.7523    3.1299   -0.9282 H   0  0  0  0  0  0  0  0  0  0  0  0
    6.6887   -2.7035    0.6555 H   0  0  0  0  0  0  0  0  0  0  0  0
    5.1037   -3.1754    1.3652 H   0  0  0  0  0  0  0  0  0  0  0  0
    6.1376   -1.9336    2.1404 H   0  0  0  0  0  0  0  0  0  0  0  0
    3.3580   -4.6948   -1.3454 H   0  0  0  0  0  0  0  0  0  0  0  0
    4.0385   -3.4352   -2.4137 H   0  0  0  0  0  0  0  0  0  0  0  0
    2.6424   -5.4942   -3.5391 H   0  0  0  0  0  0  0  0  0  0  0  0
    2.3559   -3.8384   -4.1242 H   0  0  0  0  0  0  0  0  0  0  0  0
    0.7217   -5.3445   -1.9954 H   0  0  0  0  0  0  0  0  0  0  0  0
    0.0834   -4.5704   -3.4644 H   0  0  0  0  0  0  0  0  0  0  0  0
    0.1055   -3.2138   -1.0428 H   0  0  0  0  0  0  0  0  0  0  0  0
    0.4304   -2.3461   -2.5545 H   0  0  0  0  0  0  0  0  0  0  0  0
  1  2  1  0
  1 29  1  0
  1 30  1  0
  1 31  1  0
  2  3  2  0
  2 20  1  0
  3  4  1  0
  4  5  1  0
  4 18  1  0
  5  6  2  0
  5  7  2  0
  5  8  1  1
  8  9  2  0
  8 17  1  0
  9 10  1  0
  9 32  1  0
 10 11  2  0
 10 33  1  0
 11 12  1  0
 11 16  1  0
 12 13  1  0
 13 14  1  0
 13 15  1  0
 13 34  1  6
 14 35  1  0
 14 36  1  0
 14 37  1  0
 15 38  1  0
 15 39  1  0
 15 40  1  0
 16 17  2  0
 16 41  1  0
 17 42  1  0
 18 19  1  0
 18 20  2  0
 19 43  1  0
 19 44  1  0
 19 45  1  0
 21 20  1  6
 21 22  2  0
 21 23  2  0
 21 24  1  0
 24 25  1  0
 24 28  1  0
 25 26  1  0
 25 46  1  0
 25 47  1  0
 26 27  1  0
 26 48  1  0
 26 49  1  0
 27 28  1  0
 27 50  1  0
 27 51  1  0
 28 52  1  0
 28 53  1  0
M  END

