
     RDKit          3D

 35 36  0  0  0  0  0  0  0  0999 V2000
    1.1631    0.6513   -0.2375 C   0  0  0  0  0  0  0  0  0  0  0  0
    2.2987   -0.2096   -0.5031 N   0  0  0  0  0  0  0  0  0  0  0  0
    2.8149   -0.9538    0.6384 C   0  0  1  0  0  0  0  0  0  0  0  0
    2.2398   -2.4121    0.6779 C   0  0  0  0  0  0  0  0  0  0  0  0
    2.5808   -3.2324   -0.5395 C   0  0  0  0  0  0  0  0  0  0  0  0
    3.6419   -4.1519   -0.4791 C   0  0  0  0  0  0  0  0  0  0  0  0
    4.0665   -4.8761   -1.5950 C   0  0  0  0  0  0  0  0  0  0  0  0
    3.4453   -4.6827   -2.8311 C   0  0  0  0  0  0  0  0  0  0  0  0
    2.3945   -3.7732   -2.9323 C   0  0  0  0  0  0  0  0  0  0  0  0
    1.9648   -3.0792   -1.7982 C   0  0  0  0  0  0  0  0  0  0  0  0
    0.7872   -2.2080   -1.9973 N   0  0  0  0  0  0  0  0  0  0  0  0
   -0.0559   -2.1707   -1.1120 O   0  0  0  0  0  0  0  0  0  0  0  0
    0.6905   -1.6313   -3.0668 O   0  0  0  0  0  0  0  0  0  0  0  0
    4.3360   -0.9462    0.7537 C   0  0  0  0  0  0  0  0  0  0  0  0
    5.1968   -1.0242   -0.3544 C   0  0  0  0  0  0  0  0  0  0  0  0
    4.6661   -1.0808   -1.5893 F   0  0  0  0  0  0  0  0  0  0  0  0
    6.5857   -1.0308   -0.2616 C   0  0  0  0  0  0  0  0  0  0  0  0
    7.1780   -0.9757    0.9990 C   0  0  0  0  0  0  0  0  0  0  0  0
    6.3780   -0.9174    2.1401 C   0  0  0  0  0  0  0  0  0  0  0  0
    4.9862   -0.9097    2.0064 C   0  0  0  0  0  0  0  0  0  0  0  0
    4.0482   -0.8687    3.4912 Cl  0  0  0  0  0  0  0  0  0  0  0  0
    0.8817    1.1754   -1.1635 H   0  0  0  0  0  0  0  0  0  0  0  0
    1.3419    1.4123    0.5535 H   0  0  0  0  0  0  0  0  0  0  0  0
    0.2894    0.0492    0.0604 H   0  0  0  0  0  0  0  0  0  0  0  0
    3.0211    0.2618   -1.0333 H   0  0  0  0  0  0  0  0  0  0  0  0
    2.4505   -0.4857    1.5687 H   0  0  0  0  0  0  0  0  0  0  0  0
    1.1520   -2.3323    0.7890 H   0  0  0  0  0  0  0  0  0  0  0  0
    2.6322   -2.9115    1.5763 H   0  0  0  0  0  0  0  0  0  0  0  0
    4.1484   -4.2960    0.4787 H   0  0  0  0  0  0  0  0  0  0  0  0
    4.8892   -5.5888   -1.4977 H   0  0  0  0  0  0  0  0  0  0  0  0
    3.7725   -5.2380   -3.7130 H   0  0  0  0  0  0  0  0  0  0  0  0
    1.8890   -3.5904   -3.8806 H   0  0  0  0  0  0  0  0  0  0  0  0
    7.1724   -1.0849   -1.1801 H   0  0  0  0  0  0  0  0  0  0  0  0
    8.2660   -0.9803    1.0951 H   0  0  0  0  0  0  0  0  0  0  0  0
    6.8187   -0.8796    3.1368 H   0  0  0  0  0  0  0  0  0  0  0  0
  1  2  1  0
  1 22  1  0
  1 23  1  0
  1 24  1  0
  2  3  1  0
  2 25  1  0
  3  4  1  0
  3 14  1  0
  3 26  1  1
  4  5  1  0
  4 27  1  0
  4 28  1  0
  5  6  2  0
  5 10  1  0
  6  7  1  0
  6 29  1  0
  7  8  2  0
  7 30  1  0
  8  9  1  0
  8 31  1  0
  9 10  2  0
  9 32  1  0
 10 11  1  0
 11 12  2  0
 11 13  1  0
 14 15  2  0
 14 20  1  0
 15 16  1  0
 15 17  1  0
 17 18  2  0
 17 33  1  0
 18 19  1  0
 18 34  1  0
 19 20  2  0
 19 35  1  0
 20 21  1  0
M  CHG  2  11   1  13  -1
M  END

