
     RDKit          3D

 39 41  0  0  0  0  0  0  0  0999 V2000
    5.1325    3.5412    5.4164 O   0  0  0  0  0  0  0  0  0  0  0  0
    5.3600    2.5702    4.7461 C   0  0  0  0  0  0  0  0  0  0  0  0
    5.1310    1.3138    5.1507 O   0  0  0  0  0  0  0  0  0  0  0  0
    6.0030    2.6332    3.3508 C   0  0  1  0  0  0  0  0  0  0  0  0
    5.5856    3.5181    2.8325 H   0  0  0  0  0  0  0  0  0  0  0  0
    7.5363    2.7470    3.4334 C   0  0  0  0  0  0  0  0  0  0  0  0
    7.9826    2.1834    2.0800 C   0  0  0  0  0  0  0  0  0  0  0  0
    6.9875    1.0394    1.8199 C   0  0  0  0  0  0  0  0  0  0  0  0
    5.7847    1.3777    2.6171 N   0  0  0  0  0  0  0  0  0  0  0  0
    4.4985    1.2801    1.9225 C   0  0  0  0  0  0  0  0  0  0  0  0
    4.0606   -0.1380    1.6634 C   0  0  0  0  0  0  0  0  0  0  0  0
    3.5303   -1.0369    2.5601 C   0  0  0  0  0  0  0  0  0  0  0  0
    3.2437   -2.3056    1.9821 C   0  0  0  0  0  0  0  0  0  0  0  0
    3.5379   -2.3737    0.6363 C   0  0  0  0  0  0  0  0  0  0  0  0
    3.4262   -3.5581   -0.2376 C   0  0  0  0  0  0  0  0  0  0  0  0
    3.9844   -4.7718    0.2130 C   0  0  0  0  0  0  0  0  0  0  0  0
    3.9527   -5.9327   -0.5598 C   0  0  0  0  0  0  0  0  0  0  0  0
    3.3849   -5.9122   -1.8369 C   0  0  0  0  0  0  0  0  0  0  0  0
    2.8323   -4.7278   -2.3195 C   0  0  0  0  0  0  0  0  0  0  0  0
    2.8340   -3.5832   -1.5190 C   0  0  0  0  0  0  0  0  0  0  0  0
    2.1146   -2.4123   -2.0707 N   0  0  0  0  0  0  0  0  0  0  0  0
    1.4856   -1.7161   -1.2938 O   0  0  0  0  0  0  0  0  0  0  0  0
    2.1707   -2.2462   -3.2791 O   0  0  0  0  0  0  0  0  0  0  0  0
    4.2052   -0.8579    0.0878 S   0  0  0  0  0  0  0  0  0  0  0  0
    5.3931    0.7604    4.3742 H   0  0  0  0  0  0  0  0  0  0  0  0
    7.9120    2.1179    4.2577 H   0  0  0  0  0  0  0  0  0  0  0  0
    7.8626    3.7785    3.6238 H   0  0  0  0  0  0  0  0  0  0  0  0
    9.0301    1.8471    2.0733 H   0  0  0  0  0  0  0  0  0  0  0  0
    7.8791    2.9583    1.3030 H   0  0  0  0  0  0  0  0  0  0  0  0
    7.3937    0.0628    2.1337 H   0  0  0  0  0  0  0  0  0  0  0  0
    6.7375    0.9492    0.7488 H   0  0  0  0  0  0  0  0  0  0  0  0
    4.5124    1.8506    0.9703 H   0  0  0  0  0  0  0  0  0  0  0  0
    3.7354    1.7581    2.5576 H   0  0  0  0  0  0  0  0  0  0  0  0
    3.3407   -0.7889    3.6062 H   0  0  0  0  0  0  0  0  0  0  0  0
    2.8008   -3.1383    2.5307 H   0  0  0  0  0  0  0  0  0  0  0  0
    4.4745   -4.7815    1.1885 H   0  0  0  0  0  0  0  0  0  0  0  0
    4.3924   -6.8531   -0.1682 H   0  0  0  0  0  0  0  0  0  0  0  0
    3.3705   -6.8124   -2.4551 H   0  0  0  0  0  0  0  0  0  0  0  0
    2.3774   -4.6708   -3.3085 H   0  0  0  0  0  0  0  0  0  0  0  0
  1  2  2  0
  2  3  1  0
  2  4  1  0
  3 25  1  0
  4  5  1  6
  4  6  1  0
  4  9  1  0
  6  7  1  0
  6 26  1  0
  6 27  1  0
  7  8  1  0
  7 28  1  0
  7 29  1  0
  8  9  1  0
  8 30  1  0
  8 31  1  0
  9 10  1  0
 10 11  1  0
 10 32  1  0
 10 33  1  0
 11 12  2  0
 11 24  1  0
 12 13  1  0
 12 34  1  0
 13 14  2  0
 13 35  1  0
 14 15  1  0
 14 24  1  0
 15 16  2  0
 15 20  1  0
 16 17  1  0
 16 36  1  0
 17 18  2  0
 17 37  1  0
 18 19  1  0
 18 38  1  0
 19 20  2  0
 19 39  1  0
 20 21  1  0
 21 22  2  0
 21 23  1  0
M  CHG  2  21   1  23  -1
M  END

