
     RDKit          3D

 36 37  0  0  0  0  0  0  0  0999 V2000
    2.7478    2.6773   -0.9171 C   0  0  0  0  0  0  0  0  0  0  0  0
    3.1940    1.2644   -0.6938 C   0  0  0  0  0  0  0  0  0  0  0  0
    2.4209    0.1614   -0.3924 C   0  0  0  0  0  0  0  0  0  0  0  0
    3.1676   -1.0365   -0.2451 C   0  0  0  0  0  0  0  0  0  0  0  0
    4.5288   -0.8637   -0.4326 C   0  0  0  0  0  0  0  0  0  0  0  0
    5.6189   -1.8138   -0.3718 C   0  0  0  0  0  0  0  0  0  0  0  0
    5.5337   -3.1347   -0.1040 C   0  0  0  0  0  0  0  0  0  0  0  0
    6.7663   -3.9676   -0.0834 C   0  0  0  0  0  0  0  0  0  0  0  0
    7.8833   -3.5197   -0.3127 O   0  0  0  0  0  0  0  0  0  0  0  0
    6.5546   -5.2934    0.2060 N   0  0  0  0  0  0  0  0  0  0  0  0
    7.6440   -6.2593    0.3114 C   0  0  1  0  0  0  0  0  0  0  0  0
    8.4800   -5.7860   -0.2281 H   0  0  0  0  0  0  0  0  0  0  0  0
    8.0838   -6.4517    1.7667 C   0  0  0  0  0  0  0  0  0  0  0  0
    7.2691   -7.5404   -0.4332 C   0  0  0  0  0  0  0  0  0  0  0  0
    6.9565   -7.4633   -1.8025 C   0  0  0  0  0  0  0  0  0  0  0  0
    6.6105   -8.6066   -2.5215 C   0  0  0  0  0  0  0  0  0  0  0  0
    6.5645   -9.8567   -1.8943 C   0  0  0  0  0  0  0  0  0  0  0  0
    6.8740   -9.9324   -0.5368 C   0  0  0  0  0  0  0  0  0  0  0  0
    6.8237  -11.4831    0.2764 Cl  0  0  0  0  0  0  0  0  0  0  0  0
    7.2250   -8.7915    0.1947 C   0  0  0  0  0  0  0  0  0  0  0  0
    4.8688    0.8159   -0.7966 S   0  0  0  0  0  0  0  0  0  0  0  0
    1.6557    2.7475   -0.8070 H   0  0  0  0  0  0  0  0  0  0  0  0
    3.0096    3.0368   -1.9264 H   0  0  0  0  0  0  0  0  0  0  0  0
    3.2059    3.3726   -0.1939 H   0  0  0  0  0  0  0  0  0  0  0  0
    1.3364    0.2182   -0.2806 H   0  0  0  0  0  0  0  0  0  0  0  0
    2.7182   -2.0019   -0.0076 H   0  0  0  0  0  0  0  0  0  0  0  0
    6.6295   -1.4354   -0.5624 H   0  0  0  0  0  0  0  0  0  0  0  0
    4.5718   -3.6154    0.1011 H   0  0  0  0  0  0  0  0  0  0  0  0
    5.6170   -5.6075    0.4283 H   0  0  0  0  0  0  0  0  0  0  0  0
    8.3819   -5.4797    2.1855 H   0  0  0  0  0  0  0  0  0  0  0  0
    8.9470   -7.1313    1.8383 H   0  0  0  0  0  0  0  0  0  0  0  0
    7.2713   -6.8582    2.3908 H   0  0  0  0  0  0  0  0  0  0  0  0
    6.9865   -6.4927   -2.3037 H   0  0  0  0  0  0  0  0  0  0  0  0
    6.3755   -8.5312   -3.5863 H   0  0  0  0  0  0  0  0  0  0  0  0
    6.2957  -10.7589   -2.4458 H   0  0  0  0  0  0  0  0  0  0  0  0
    7.4617   -8.9021    1.2524 H   0  0  0  0  0  0  0  0  0  0  0  0
  1  2  1  0
  1 22  1  0
  1 23  1  0
  1 24  1  0
  2  3  2  0
  2 21  1  0
  3  4  1  0
  3 25  1  0
  4  5  2  0
  4 26  1  0
  5  6  1  0
  5 21  1  0
  6  7  2  0
  6 27  1  0
  7  8  1  0
  7 28  1  0
  8  9  2  0
  8 10  1  0
 10 11  1  0
 10 29  1  0
 11 12  1  6
 11 13  1  0
 11 14  1  0
 13 30  1  0
 13 31  1  0
 13 32  1  0
 14 15  2  0
 14 20  1  0
 15 16  1  0
 15 33  1  0
 16 17  2  0
 16 34  1  0
 17 18  1  0
 17 35  1  0
 18 19  1  0
 18 20  2  0
 20 36  1  0
M  END

