
     RDKit          3D

 66 73  0  0  0  0  0  0  0  0999 V2000
    9.7785    3.3883    0.8291 N   0  0  0  0  0  0  0  0  0  0  0  0
    9.0185    2.5896    0.4672 C   0  0  0  0  0  0  0  0  0  0  0  0
    8.0750    1.5998    0.0219 C   0  0  0  0  0  0  0  0  0  0  0  0
    8.3181    0.8851   -1.1614 C   0  0  0  0  0  0  0  0  0  0  0  0
    7.3851   -0.0740   -1.5853 C   0  0  0  0  0  0  0  0  0  0  0  0
    7.6207   -0.8181   -2.7932 C   0  0  0  0  0  0  0  0  0  0  0  0
    7.8070   -1.4183   -3.7686 N   0  0  0  0  0  0  0  0  0  0  0  0
    6.2282   -0.3249   -0.8280 C   0  0  0  0  0  0  0  0  0  0  0  0
    5.9817    0.3993    0.3476 C   0  0  0  0  0  0  0  0  0  0  0  0
    4.8141    0.1570    1.1005 N   0  0  0  0  0  0  0  0  0  0  0  0
    4.7658   -0.1297    2.4754 C   0  0  0  0  0  0  0  0  0  0  0  0
    5.8106   -0.2789    3.3949 C   0  0  0  0  0  0  0  0  0  0  0  0
    5.4776   -0.5960    4.7134 C   0  0  0  0  0  0  0  0  0  0  0  0
    4.1393   -0.7678    5.1106 C   0  0  0  0  0  0  0  0  0  0  0  0
    3.1034   -0.6343    4.1871 C   0  0  0  0  0  0  0  0  0  0  0  0
    3.4114   -0.3163    2.8570 C   0  0  0  0  0  0  0  0  0  0  0  0
    2.6063   -0.1293    1.6639 C   0  0  0  0  0  0  0  0  0  0  0  0
    1.2287   -0.1722    1.4215 C   0  0  0  0  0  0  0  0  0  0  0  0
    0.7301    0.0729    0.1326 C   0  0  0  0  0  0  0  0  0  0  0  0
   -0.7310    0.0252   -0.1446 C   0  0  0  0  0  0  0  0  0  0  0  0
   -1.6608    0.5212    0.8018 C   0  0  0  0  0  0  0  0  0  0  0  0
   -3.0374    0.4887    0.5858 C   0  0  0  0  0  0  0  0  0  0  0  0
   -3.5031   -0.0615   -0.6133 C   0  0  0  0  0  0  0  0  0  0  0  0
   -2.5982   -0.5481   -1.5906 C   0  0  0  0  0  0  0  0  0  0  0  0
   -1.2206   -0.5049   -1.3484 C   0  0  0  0  0  0  0  0  0  0  0  0
   -3.3959   -1.0086   -2.7123 C   0  0  0  0  0  0  0  0  0  0  0  0
   -3.0773   -1.6003   -3.9426 C   0  0  0  0  0  0  0  0  0  0  0  0
   -4.1076   -1.9560   -4.8119 C   0  0  0  0  0  0  0  0  0  0  0  0
   -5.4506   -1.7342   -4.4574 C   0  0  0  0  0  0  0  0  0  0  0  0
   -5.7940   -1.1465   -3.2383 C   0  0  0  0  0  0  0  0  0  0  0  0
   -4.7552   -0.7761   -2.3763 C   0  0  0  0  0  0  0  0  0  0  0  0
   -4.8135   -0.1990   -1.0963 N   0  0  0  0  0  0  0  0  0  0  0  0
   -5.9883    0.1726   -0.4102 C   0  0  0  0  0  0  0  0  0  0  0  0
   -6.9356    1.0032   -1.0268 C   0  0  0  0  0  0  0  0  0  0  0  0
   -8.1112    1.3636   -0.3464 C   0  0  0  0  0  0  0  0  0  0  0  0
   -9.0779    2.2094   -0.9932 C   0  0  0  0  0  0  0  0  0  0  0  0
   -9.8576    2.8905   -1.5173 N   0  0  0  0  0  0  0  0  0  0  0  0
   -8.3391    0.9176    0.9648 C   0  0  0  0  0  0  0  0  0  0  0  0
   -7.3837    0.0967    1.5839 C   0  0  0  0  0  0  0  0  0  0  0  0
   -7.6033   -0.3723    2.9256 C   0  0  0  0  0  0  0  0  0  0  0  0
   -7.7769   -0.7503    4.0088 N   0  0  0  0  0  0  0  0  0  0  0  0
   -6.2194   -0.2845    0.8955 C   0  0  0  0  0  0  0  0  0  0  0  0
    1.6505    0.3738   -0.9010 C   0  0  0  0  0  0  0  0  0  0  0  0
    3.0270    0.4214   -0.6865 C   0  0  0  0  0  0  0  0  0  0  0  0
    3.5021    0.1553    0.6023 C   0  0  0  0  0  0  0  0  0  0  0  0
    6.9063    1.3672    0.7668 C   0  0  0  0  0  0  0  0  0  0  0  0
    9.2202    1.0729   -1.7442 H   0  0  0  0  0  0  0  0  0  0  0  0
    5.5252   -1.0938   -1.1497 H   0  0  0  0  0  0  0  0  0  0  0  0
    6.8550   -0.1631    3.1016 H   0  0  0  0  0  0  0  0  0  0  0  0
    6.2772   -0.7155    5.4484 H   0  0  0  0  0  0  0  0  0  0  0  0
    3.9128   -1.0140    6.1504 H   0  0  0  0  0  0  0  0  0  0  0  0
    2.0649   -0.7806    4.4941 H   0  0  0  0  0  0  0  0  0  0  0  0
    0.5428   -0.4182    2.2350 H   0  0  0  0  0  0  0  0  0  0  0  0
   -1.2886    0.9724    1.7239 H   0  0  0  0  0  0  0  0  0  0  0  0
   -3.7179    0.9024    1.3316 H   0  0  0  0  0  0  0  0  0  0  0  0
   -0.5270   -0.9049   -2.0913 H   0  0  0  0  0  0  0  0  0  0  0  0
   -2.0349   -1.7848   -4.2136 H   0  0  0  0  0  0  0  0  0  0  0  0
   -3.8729   -2.4167   -5.7741 H   0  0  0  0  0  0  0  0  0  0  0  0
   -6.2454   -2.0299   -5.1465 H   0  0  0  0  0  0  0  0  0  0  0  0
   -6.8416   -0.9950   -2.9739 H   0  0  0  0  0  0  0  0  0  0  0  0
   -6.7540    1.3803   -2.0337 H   0  0  0  0  0  0  0  0  0  0  0  0
   -9.2468    1.2055    1.4958 H   0  0  0  0  0  0  0  0  0  0  0  0
   -5.4985   -0.9476    1.3743 H   0  0  0  0  0  0  0  0  0  0  0  0
    1.2703    0.6057   -1.8981 H   0  0  0  0  0  0  0  0  0  0  0  0
    3.6997    0.6795   -1.5058 H   0  0  0  0  0  0  0  0  0  0  0  0
    6.7121    1.9495    1.6679 H   0  0  0  0  0  0  0  0  0  0  0  0
  1  2  3  0
  2  3  1  0
  3  4  2  0
  3 46  1  0
  4  5  1  0
  4 47  1  0
  5  6  1  0
  5  8  2  0
  6  7  3  0
  8  9  1  0
  8 48  1  0
  9 10  1  0
  9 46  2  0
 10 11  1  0
 10 45  1  0
 11 12  2  0
 11 16  1  0
 12 13  1  0
 12 49  1  0
 13 14  2  0
 13 50  1  0
 14 15  1  0
 14 51  1  0
 15 16  2  0
 15 52  1  0
 16 17  1  0
 17 18  1  0
 17 45  2  0
 18 19  2  0
 18 53  1  0
 19 20  1  0
 19 43  1  0
 20 21  2  0
 20 25  1  0
 21 22  1  0
 21 54  1  0
 22 23  2  0
 22 55  1  0
 23 24  1  0
 23 32  1  0
 24 25  2  0
 24 26  1  0
 25 56  1  0
 26 27  2  0
 26 31  1  0
 27 28  1  0
 27 57  1  0
 28 29  2  0
 28 58  1  0
 29 30  1  0
 29 59  1  0
 30 31  2  0
 30 60  1  0
 31 32  1  0
 32 33  1  0
 33 34  2  0
 33 42  1  0
 34 35  1  0
 34 61  1  0
 35 36  1  0
 35 38  2  0
 36 37  3  0
 38 39  1  0
 38 62  1  0
 39 40  1  0
 39 42  2  0
 40 41  3  0
 42 63  1  0
 43 44  2  0
 43 64  1  0
 44 45  1  0
 44 65  1  0
 46 66  1  0
M  END

