
     RDKit          3D

 75 77  0  0  0  0  0  0  0  0999 V2000
   12.6525    3.6527    3.6645 C   0  0  0  0  0  0  0  0  0  0  0  0
   11.8760    3.0391    2.9609 C   0  0  0  0  0  0  0  0  0  0  0  0
   10.9610    2.3146    2.1303 C   0  0  0  0  0  0  0  0  0  0  0  0
   10.8629    2.5900    0.7520 C   0  0  0  0  0  0  0  0  0  0  0  0
    9.9746    1.8816   -0.0563 C   0  0  0  0  0  0  0  0  0  0  0  0
    9.1539    0.8812    0.4825 C   0  0  0  0  0  0  0  0  0  0  0  0
    8.1717    0.0562   -0.3453 C   0  0  1  0  0  0  0  0  0  0  0  0
    7.7251    0.7494   -1.6556 C   0  0  0  0  0  0  0  0  0  0  0  0
    7.4179    1.9264   -1.6472 O   0  0  0  0  0  0  0  0  0  0  0  0
    7.6012   -0.0640   -2.7510 N   0  0  0  0  0  0  0  0  0  0  0  0
    7.0798    0.3353   -4.0227 C   0  0  0  0  0  0  0  0  0  0  0  0
    7.9316    0.2786   -5.1477 C   0  0  0  0  0  0  0  0  0  0  0  0
    9.3732   -0.1465   -5.0146 C   0  0  0  0  0  0  0  0  0  0  0  0
    7.4164    0.6399   -6.3994 C   0  0  0  0  0  0  0  0  0  0  0  0
    6.0941    1.0624   -6.5323 C   0  0  0  0  0  0  0  0  0  0  0  0
    5.2669    1.1123   -5.4114 C   0  0  0  0  0  0  0  0  0  0  0  0
    5.7315    0.7413   -4.1405 C   0  0  0  0  0  0  0  0  0  0  0  0
    4.7922    0.7565   -2.9613 C   0  0  0  0  0  0  0  0  0  0  0  0
    8.6032   -1.3601   -0.4859 N   0  0  0  0  0  0  0  0  0  0  0  0
    7.7549   -2.4189   -0.1933 C   0  0  0  0  0  0  0  0  0  0  0  0
    8.1698   -3.5372    0.0622 O   0  0  0  0  0  0  0  0  0  0  0  0
    6.2328   -2.2125   -0.2798 C   0  0  1  0  0  0  0  0  0  0  0  0
    5.6647   -3.0124   -1.4647 C   0  0  0  0  0  0  0  0  0  0  0  0
    4.2946   -2.7618   -1.6401 O   0  0  0  0  0  0  0  0  0  0  0  0
    5.5804   -2.6660    0.9406 N   0  0  0  0  0  0  0  0  0  0  0  0
    5.4841   -1.8173    2.0226 C   0  0  0  0  0  0  0  0  0  0  0  0
    5.7265   -0.6253    1.9695 O   0  0  0  0  0  0  0  0  0  0  0  0
    5.0725   -2.4970    3.1011 O   0  0  0  0  0  0  0  0  0  0  0  0
    4.8232   -1.8443    4.3961 C   0  0  1  0  0  0  0  0  0  0  0  0
    3.6965   -0.8179    4.2482 C   0  0  0  0  0  0  0  0  0  0  0  0
    4.3867   -3.0122    5.2817 C   0  0  0  0  0  0  0  0  0  0  0  0
    6.1150   -1.2136    4.9245 C   0  0  0  0  0  0  0  0  0  0  0  0
   10.0183   -1.6844   -0.4778 C   0  0  1  0  0  0  0  0  0  0  0  0
   10.5666   -2.5815   -1.5523 C   0  0  0  0  0  0  0  0  0  0  0  0
   10.9496   -1.1233   -1.5242 C   0  0  2  0  0  0  0  0  0  0  0  0
   12.3517   -0.6962   -1.1509 C   0  0  0  0  0  0  0  0  0  0  0  0
    9.2391    0.6191    1.8595 C   0  0  0  0  0  0  0  0  0  0  0  0
   10.1291    1.3146    2.6738 C   0  0  0  0  0  0  0  0  0  0  0  0
   13.3378    4.1970    4.2864 H   0  0  0  0  0  0  0  0  0  0  0  0
   11.4895    3.3720    0.3184 H   0  0  0  0  0  0  0  0  0  0  0  0
    9.9054    2.1352   -1.1143 H   0  0  0  0  0  0  0  0  0  0  0  0
    7.2491    0.0527    0.2550 H   0  0  0  0  0  0  0  0  0  0  0  0
    8.0143   -0.9870   -2.6690 H   0  0  0  0  0  0  0  0  0  0  0  0
    9.4771   -1.1787   -4.6379 H   0  0  0  0  0  0  0  0  0  0  0  0
    9.9218    0.5070   -4.3165 H   0  0  0  0  0  0  0  0  0  0  0  0
    9.8851   -0.1031   -5.9863 H   0  0  0  0  0  0  0  0  0  0  0  0
    8.0690    0.5988   -7.2756 H   0  0  0  0  0  0  0  0  0  0  0  0
    5.7063    1.3499   -7.5128 H   0  0  0  0  0  0  0  0  0  0  0  0
    4.2275    1.4340   -5.5171 H   0  0  0  0  0  0  0  0  0  0  0  0
    3.7874    1.0731   -3.2754 H   0  0  0  0  0  0  0  0  0  0  0  0
    5.1439    1.4519   -2.1841 H   0  0  0  0  0  0  0  0  0  0  0  0
    4.6927   -0.2442   -2.5081 H   0  0  0  0  0  0  0  0  0  0  0  0
    5.9463   -1.1669   -0.4231 H   0  0  0  0  0  0  0  0  0  0  0  0
    5.8855   -4.0868   -1.3055 H   0  0  0  0  0  0  0  0  0  0  0  0
    6.1722   -2.7103   -2.3937 H   0  0  0  0  0  0  0  0  0  0  0  0
    3.8769   -2.8451   -0.7695 H   0  0  0  0  0  0  0  0  0  0  0  0
    5.7001   -3.6499    1.1703 H   0  0  0  0  0  0  0  0  0  0  0  0
    2.7939   -1.2945    3.8346 H   0  0  0  0  0  0  0  0  0  0  0  0
    3.9962    0.0078    3.5900 H   0  0  0  0  0  0  0  0  0  0  0  0
    3.4407   -0.4045    5.2361 H   0  0  0  0  0  0  0  0  0  0  0  0
    3.4880   -3.4958    4.8701 H   0  0  0  0  0  0  0  0  0  0  0  0
    4.1568   -2.6542    6.2965 H   0  0  0  0  0  0  0  0  0  0  0  0
    5.1845   -3.7671    5.3501 H   0  0  0  0  0  0  0  0  0  0  0  0
    6.4284   -0.3663    4.3016 H   0  0  0  0  0  0  0  0  0  0  0  0
    6.9245   -1.9599    4.9495 H   0  0  0  0  0  0  0  0  0  0  0  0
    5.9544   -0.8524    5.9522 H   0  0  0  0  0  0  0  0  0  0  0  0
   10.4379   -1.8183    0.5259 H   0  0  0  0  0  0  0  0  0  0  0  0
    9.8739   -2.9305   -2.3230 H   0  0  0  0  0  0  0  0  0  0  0  0
   11.3082   -3.3273   -1.2530 H   0  0  0  0  0  0  0  0  0  0  0  0
   10.4721   -0.5024   -2.2882 H   0  0  0  0  0  0  0  0  0  0  0  0
   12.7734   -1.3545   -0.3745 H   0  0  0  0  0  0  0  0  0  0  0  0
   12.3683    0.3336   -0.7612 H   0  0  0  0  0  0  0  0  0  0  0  0
   13.0221   -0.7431   -2.0249 H   0  0  0  0  0  0  0  0  0  0  0  0
    8.5845   -0.1356    2.3024 H   0  0  0  0  0  0  0  0  0  0  0  0
   10.1807    1.0979    3.7426 H   0  0  0  0  0  0  0  0  0  0  0  0
  1  2  3  0
  1 39  1  0
  2  3  1  0
  3  4  2  0
  3 38  1  0
  4  5  1  0
  4 40  1  0
  5  6  2  0
  5 41  1  0
  6  7  1  0
  6 37  1  0
  7  8  1  0
  7 19  1  0
  7 42  1  1
  8  9  2  0
  8 10  1  0
 10 11  1  0
 10 43  1  0
 11 12  2  0
 11 17  1  0
 12 13  1  0
 12 14  1  0
 13 44  1  0
 13 45  1  0
 13 46  1  0
 14 15  2  0
 14 47  1  0
 15 16  1  0
 15 48  1  0
 16 17  2  0
 16 49  1  0
 17 18  1  0
 18 50  1  0
 18 51  1  0
 18 52  1  0
 19 20  1  0
 19 33  1  0
 20 21  2  0
 20 22  1  0
 22 23  1  0
 22 25  1  0
 22 53  1  6
 23 24  1  0
 23 54  1  0
 23 55  1  0
 24 56  1  0
 25 26  1  0
 25 57  1  0
 26 27  2  0
 26 28  1  0
 29 28  1  6
 29 30  1  0
 29 31  1  0
 29 32  1  0
 30 58  1  0
 30 59  1  0
 30 60  1  0
 31 61  1  0
 31 62  1  0
 31 63  1  0
 32 64  1  0
 32 65  1  0
 32 66  1  0
 33 34  1  0
 33 35  1  0
 33 67  1  1
 34 35  1  0
 34 68  1  0
 34 69  1  0
 35 36  1  0
 35 70  1  6
 36 71  1  0
 36 72  1  0
 36 73  1  0
 37 38  2  0
 37 74  1  0
 38 75  1  0
M  END

