
     RDKit          3D

 59 62  0  0  0  0  0  0  0  0999 V2000
    8.8244   -7.2225    3.2630 C   0  0  0  0  0  0  0  0  0  0  0  0
    8.1654   -5.9877    3.1112 O   0  0  0  0  0  0  0  0  0  0  0  0
    8.1882   -5.0635    4.1027 C   0  0  0  0  0  0  0  0  0  0  0  0
    8.9051   -5.1840    5.2936 C   0  0  0  0  0  0  0  0  0  0  0  0
    8.8660   -4.1637    6.2536 C   0  0  0  0  0  0  0  0  0  0  0  0
    8.1019   -3.0290    6.0013 C   0  0  0  0  0  0  0  0  0  0  0  0
    8.0437   -1.7426    7.1935 Cl  0  0  0  0  0  0  0  0  0  0  0  0
    7.3720   -2.8842    4.8157 C   0  0  0  0  0  0  0  0  0  0  0  0
    7.4056   -3.9013    3.8534 C   0  0  0  0  0  0  0  0  0  0  0  0
    6.7172   -3.8632    2.6294 N   0  0  0  0  0  0  0  0  0  0  0  0
    5.9447   -2.8432    2.1539 C   0  0  0  0  0  0  0  0  0  0  0  0
    5.7210   -1.7964    2.7420 O   0  0  0  0  0  0  0  0  0  0  0  0
    5.3744   -3.0246    0.7290 C   0  0  1  0  0  0  0  0  0  0  0  0
    6.4318   -3.1542   -0.3672 C   0  0  0  0  0  0  0  0  0  0  0  0
    3.9776   -4.2469    0.6138 S   0  0  0  0  0  0  0  0  0  0  0  0
    4.7907   -5.8064    0.5304 C   0  0  0  0  0  0  0  0  0  0  0  0
    6.0183   -6.0862    0.8813 N   0  0  0  0  0  0  0  0  0  0  0  0
    6.2393   -7.4251    0.6650 N   0  0  0  0  0  0  0  0  0  0  0  0
    5.1237   -7.9414    0.2106 C   0  0  0  0  0  0  0  0  0  0  0  0
    4.8949   -9.2781   -0.0601 N   0  0  0  0  0  0  0  0  0  0  0  0
    5.9024  -10.2038    0.4671 C   0  0  0  0  0  0  0  0  0  0  0  0
    5.3690  -11.6300    0.3794 C   0  0  0  0  0  0  0  0  0  0  0  0
    4.9895  -11.9654   -0.9399 O   0  0  0  0  0  0  0  0  0  0  0  0
    3.9984  -11.0914   -1.4340 C   0  0  0  0  0  0  0  0  0  0  0  0
    4.4722   -9.6416   -1.4213 C   0  0  0  0  0  0  0  0  0  0  0  0
    4.1492   -6.9545    0.0924 N   0  0  0  0  0  0  0  0  0  0  0  0
    2.7626   -7.1059   -0.2310 C   0  0  0  0  0  0  0  0  0  0  0  0
    2.2297   -6.4538   -1.3505 C   0  0  0  0  0  0  0  0  0  0  0  0
    0.8734   -6.6081   -1.6397 C   0  0  0  0  0  0  0  0  0  0  0  0
    0.0635   -7.4106   -0.8306 C   0  0  0  0  0  0  0  0  0  0  0  0
    0.5888   -8.0722    0.2900 C   0  0  0  0  0  0  0  0  0  0  0  0
   -0.2754   -8.9450    1.1673 C   0  0  0  0  0  0  0  0  0  0  0  0
    1.9510   -7.9026    0.5828 C   0  0  0  0  0  0  0  0  0  0  0  0
    8.5836   -7.8024    2.3626 H   0  0  0  0  0  0  0  0  0  0  0  0
    8.4657   -7.7680    4.1552 H   0  0  0  0  0  0  0  0  0  0  0  0
    9.9196   -7.0952    3.3430 H   0  0  0  0  0  0  0  0  0  0  0  0
    9.5061   -6.0735    5.4845 H   0  0  0  0  0  0  0  0  0  0  0  0
    9.4268   -4.2554    7.1847 H   0  0  0  0  0  0  0  0  0  0  0  0
    6.7771   -1.9949    4.6284 H   0  0  0  0  0  0  0  0  0  0  0  0
    6.7670   -4.7250    2.0622 H   0  0  0  0  0  0  0  0  0  0  0  0
    4.8025   -2.0978    0.5795 H   0  0  0  0  0  0  0  0  0  0  0  0
    7.0061   -4.0854   -0.2773 H   0  0  0  0  0  0  0  0  0  0  0  0
    7.1302   -2.3050   -0.2924 H   0  0  0  0  0  0  0  0  0  0  0  0
    5.9605   -3.1250   -1.3614 H   0  0  0  0  0  0  0  0  0  0  0  0
    6.1214   -9.9366    1.5105 H   0  0  0  0  0  0  0  0  0  0  0  0
    6.8502  -10.1213   -0.1005 H   0  0  0  0  0  0  0  0  0  0  0  0
    4.5059  -11.7441    1.0678 H   0  0  0  0  0  0  0  0  0  0  0  0
    6.1489  -12.3450    0.6820 H   0  0  0  0  0  0  0  0  0  0  0  0
    3.0707  -11.1770   -0.8310 H   0  0  0  0  0  0  0  0  0  0  0  0
    3.7723  -11.4065   -2.4639 H   0  0  0  0  0  0  0  0  0  0  0  0
    3.6558   -8.9846   -1.7512 H   0  0  0  0  0  0  0  0  0  0  0  0
    5.3171   -9.5237   -2.1308 H   0  0  0  0  0  0  0  0  0  0  0  0
    2.8718   -5.8312   -1.9753 H   0  0  0  0  0  0  0  0  0  0  0  0
    0.4437   -6.0987   -2.5055 H   0  0  0  0  0  0  0  0  0  0  0  0
   -0.9971   -7.5226   -1.0711 H   0  0  0  0  0  0  0  0  0  0  0  0
   -1.3388   -8.8577    0.9019 H   0  0  0  0  0  0  0  0  0  0  0  0
   -0.1669   -8.6762    2.2303 H   0  0  0  0  0  0  0  0  0  0  0  0
    0.0070  -10.0074    1.0731 H   0  0  0  0  0  0  0  0  0  0  0  0
    2.3923   -8.3962    1.4512 H   0  0  0  0  0  0  0  0  0  0  0  0
  1  2  1  0
  1 34  1  0
  1 35  1  0
  1 36  1  0
  2  3  1  0
  3  4  2  0
  3  9  1  0
  4  5  1  0
  4 37  1  0
  5  6  2  0
  5 38  1  0
  6  7  1  0
  6  8  1  0
  8  9  2  0
  8 39  1  0
  9 10  1  0
 10 11  1  0
 10 40  1  0
 11 12  2  0
 11 13  1  0
 13 14  1  0
 13 15  1  0
 13 41  1  6
 14 42  1  0
 14 43  1  0
 14 44  1  0
 15 16  1  0
 16 17  2  0
 16 26  1  0
 17 18  1  0
 18 19  2  0
 19 20  1  0
 19 26  1  0
 20 21  1  0
 20 25  1  0
 21 22  1  0
 21 45  1  0
 21 46  1  0
 22 23  1  0
 22 47  1  0
 22 48  1  0
 23 24  1  0
 24 25  1  0
 24 49  1  0
 24 50  1  0
 25 51  1  0
 25 52  1  0
 26 27  1  0
 27 28  2  0
 27 33  1  0
 28 29  1  0
 28 53  1  0
 29 30  2  0
 29 54  1  0
 30 31  1  0
 30 55  1  0
 31 32  1  0
 31 33  2  0
 32 56  1  0
 32 57  1  0
 32 58  1  0
 33 59  1  0
M  END

