
     RDKit          3D

 40 41  0  0  0  0  0  0  0  0999 V2000
    0.9787    0.0727    2.1316 C   0  0  0  0  0  0  0  0  0  0  0  0
    2.3800   -0.1606    1.9792 O   0  0  0  0  0  0  0  0  0  0  0  0
    2.7361   -1.0421    1.0274 C   0  0  0  0  0  0  0  0  0  0  0  0
    1.9556   -1.5989    0.2993 O   0  0  0  0  0  0  0  0  0  0  0  0
    4.2537   -1.1930    0.9330 C   0  0  1  0  0  0  0  0  0  0  0  0
    4.4435   -2.1437    0.4164 H   0  0  0  0  0  0  0  0  0  0  0  0
    4.8863   -0.0047    0.1613 C   0  0  0  0  0  0  0  0  0  0  0  0
    6.2244    0.2663    0.8719 C   0  0  2  0  0  0  0  0  0  0  0  0
    6.5431    1.3120    0.7629 H   0  0  0  0  0  0  0  0  0  0  0  0
    7.3148   -0.5432    0.3248 N   0  0  0  0  0  0  0  0  0  0  0  0
    8.6056   -0.2174    0.0940 C   0  0  0  0  0  0  0  0  0  0  0  0
    9.2322   -1.2782   -0.3647 N   0  0  0  0  0  0  0  0  0  0  0  0
    8.3075   -2.2628   -0.4088 N   0  0  0  0  0  0  0  0  0  0  0  0
    7.1610   -1.8403    0.0010 N   0  0  0  0  0  0  0  0  0  0  0  0
    5.9105   -0.0815    2.3361 C   0  0  0  0  0  0  0  0  0  0  0  0
    4.9388   -1.1534    2.2199 N   0  0  0  0  0  0  0  0  0  0  0  0
    4.7737   -2.0677    3.2278 C   0  0  0  0  0  0  0  0  0  0  0  0
    5.3841   -2.0234    4.2773 O   0  0  0  0  0  0  0  0  0  0  0  0
    3.8523   -2.9822    2.8704 O   0  0  0  0  0  0  0  0  0  0  0  0
    3.4770   -4.1016    3.7451 C   0  0  1  0  0  0  0  0  0  0  0  0
    2.8491   -3.5602    5.0330 C   0  0  0  0  0  0  0  0  0  0  0  0
    2.4442   -4.8555    2.9062 C   0  0  0  0  0  0  0  0  0  0  0  0
    4.7008   -4.9798    4.0222 C   0  0  0  0  0  0  0  0  0  0  0  0
    0.8764    0.8110    2.9363 H   0  0  0  0  0  0  0  0  0  0  0  0
    0.4575   -0.8584    2.4004 H   0  0  0  0  0  0  0  0  0  0  0  0
    0.5416    0.4586    1.1982 H   0  0  0  0  0  0  0  0  0  0  0  0
    4.2592    0.8928    0.2700 H   0  0  0  0  0  0  0  0  0  0  0  0
    5.0046   -0.2167   -0.9090 H   0  0  0  0  0  0  0  0  0  0  0  0
    9.0329    0.7696    0.2616 H   0  0  0  0  0  0  0  0  0  0  0  0
    5.4882    0.8051    2.8454 H   0  0  0  0  0  0  0  0  0  0  0  0
    6.7886   -0.4111    2.9083 H   0  0  0  0  0  0  0  0  0  0  0  0
    1.9975   -2.9028    4.7968 H   0  0  0  0  0  0  0  0  0  0  0  0
    3.5822   -2.9934    5.6211 H   0  0  0  0  0  0  0  0  0  0  0  0
    2.4753   -4.3967    5.6438 H   0  0  0  0  0  0  0  0  0  0  0  0
    1.5955   -4.2026    2.6527 H   0  0  0  0  0  0  0  0  0  0  0  0
    2.0646   -5.7252    3.4638 H   0  0  0  0  0  0  0  0  0  0  0  0
    2.8927   -5.2110    1.9666 H   0  0  0  0  0  0  0  0  0  0  0  0
    5.4527   -4.4381    4.6096 H   0  0  0  0  0  0  0  0  0  0  0  0
    5.1582   -5.3089    3.0762 H   0  0  0  0  0  0  0  0  0  0  0  0
    4.3920   -5.8764    4.5821 H   0  0  0  0  0  0  0  0  0  0  0  0
  1  2  1  0
  1 24  1  0
  1 25  1  0
  1 26  1  0
  2  3  1  0
  3  4  2  0
  3  5  1  0
  5  6  1  6
  5  7  1  0
  5 16  1  0
  7  8  1  0
  7 27  1  0
  7 28  1  0
  8  9  1  1
  8 10  1  0
  8 15  1  0
 10 11  1  0
 10 14  1  0
 11 12  2  0
 11 29  1  0
 12 13  1  0
 13 14  2  0
 15 16  1  0
 15 30  1  0
 15 31  1  0
 16 17  1  0
 17 18  2  0
 17 19  1  0
 20 19  1  6
 20 21  1  0
 20 22  1  0
 20 23  1  0
 21 32  1  0
 21 33  1  0
 21 34  1  0
 22 35  1  0
 22 36  1  0
 22 37  1  0
 23 38  1  0
 23 39  1  0
 23 40  1  0
M  END

