
     RDKit          3D

 64 67  0  0  0  0  0  0  0  0999 V2000
    1.6004   -1.8490    5.1332 C   0  0  0  0  0  0  0  0  0  0  0  0
    3.0260   -1.6802    4.6445 C   0  0  0  0  0  0  0  0  0  0  0  0
    2.9856   -1.4246    3.2485 O   0  0  0  0  0  0  0  0  0  0  0  0
    4.1381   -1.2381    2.5615 C   0  0  0  0  0  0  0  0  0  0  0  0
    5.4208   -1.2751    3.1308 C   0  0  0  0  0  0  0  0  0  0  0  0
    6.5480   -1.0533    2.3324 C   0  0  0  0  0  0  0  0  0  0  0  0
    6.4139   -0.8206    0.9591 C   0  0  0  0  0  0  0  0  0  0  0  0
    7.5587   -0.5884    0.1312 N   0  0  0  0  0  0  0  0  0  0  0  0
    7.7324    0.6518   -0.6106 C   0  0  0  0  0  0  0  0  0  0  0  0
    7.5129    0.5073   -2.1238 C   0  0  0  0  0  0  0  0  0  0  0  0
    6.6444   -0.2240   -2.5810 O   0  0  0  0  0  0  0  0  0  0  0  0
    8.3117    1.2928   -2.8913 N   0  0  0  0  0  0  0  0  0  0  0  0
    8.2557    1.2975   -4.3400 C   0  0  0  0  0  0  0  0  0  0  0  0
    9.4638    0.6583   -5.0089 C   0  0  0  0  0  0  0  0  0  0  0  0
   10.2577   -0.2854   -4.3397 C   0  0  0  0  0  0  0  0  0  0  0  0
   11.3623   -0.8685   -4.9670 C   0  0  0  0  0  0  0  0  0  0  0  0
   11.6929   -0.5224   -6.2793 C   0  0  0  0  0  0  0  0  0  0  0  0
   10.9080    0.4070   -6.9634 C   0  0  0  0  0  0  0  0  0  0  0  0
    9.8033    0.9953   -6.3360 C   0  0  0  0  0  0  0  0  0  0  0  0
    9.0164    1.9454   -7.0612 N   0  0  0  0  0  0  0  0  0  0  0  0
    7.7622    1.7181   -7.6090 C   0  0  0  0  0  0  0  0  0  0  0  0
    7.3950    2.9061   -8.1930 C   0  0  0  0  0  0  0  0  0  0  0  0
    8.3758    3.8497   -8.0185 N   0  0  0  0  0  0  0  0  0  0  0  0
    9.3395    3.2610   -7.3428 C   0  0  0  0  0  0  0  0  0  0  0  0
   10.6185    3.9057   -6.9150 C   0  0  0  0  0  0  0  0  0  0  0  0
    8.7915   -1.7365    0.0252 S   0  0  1  0  0  0  0  0  0  0  0  0
    9.6518   -1.2442   -1.0623 O   0  0  0  0  0  0  0  0  0  0  0  0
    9.3807   -1.9873    1.3441 O   0  0  0  0  0  0  0  0  0  0  0  0
    7.9798   -3.2542   -0.4822 C   0  0  0  0  0  0  0  0  0  0  0  0
    7.2207   -3.2874   -1.6590 C   0  0  0  0  0  0  0  0  0  0  0  0
    6.6585   -4.4966   -2.0657 C   0  0  0  0  0  0  0  0  0  0  0  0
    6.8705   -5.6396   -1.2929 C   0  0  0  0  0  0  0  0  0  0  0  0
    6.3302   -6.7968   -1.6881 F   0  0  0  0  0  0  0  0  0  0  0  0
    7.6237   -5.6116   -0.1203 C   0  0  0  0  0  0  0  0  0  0  0  0
    8.1851   -4.4017    0.2899 C   0  0  0  0  0  0  0  0  0  0  0  0
    5.1281   -0.8023    0.3869 C   0  0  0  0  0  0  0  0  0  0  0  0
    4.0047   -0.9927    1.1816 C   0  0  0  0  0  0  0  0  0  0  0  0
    1.5902   -2.0486    6.2159 H   0  0  0  0  0  0  0  0  0  0  0  0
    1.1100   -2.6895    4.6188 H   0  0  0  0  0  0  0  0  0  0  0  0
    1.0131   -0.9382    4.9409 H   0  0  0  0  0  0  0  0  0  0  0  0
    3.6200   -2.5922    4.8442 H   0  0  0  0  0  0  0  0  0  0  0  0
    3.5235   -0.8416    5.1677 H   0  0  0  0  0  0  0  0  0  0  0  0
    5.5582   -1.4612    4.1959 H   0  0  0  0  0  0  0  0  0  0  0  0
    7.5443   -1.0719    2.7755 H   0  0  0  0  0  0  0  0  0  0  0  0
    8.7166    1.1013   -0.4015 H   0  0  0  0  0  0  0  0  0  0  0  0
    6.9704    1.3520   -0.2347 H   0  0  0  0  0  0  0  0  0  0  0  0
    9.0828    1.7744   -2.4427 H   0  0  0  0  0  0  0  0  0  0  0  0
    8.1291    2.3285   -4.7069 H   0  0  0  0  0  0  0  0  0  0  0  0
    7.3383    0.7521   -4.6101 H   0  0  0  0  0  0  0  0  0  0  0  0
   10.0166   -0.5667   -3.3119 H   0  0  0  0  0  0  0  0  0  0  0  0
   11.9646   -1.5992   -4.4217 H   0  0  0  0  0  0  0  0  0  0  0  0
   12.5543   -0.9780   -6.7736 H   0  0  0  0  0  0  0  0  0  0  0  0
   11.1367    0.6831   -7.9951 H   0  0  0  0  0  0  0  0  0  0  0  0
    7.2772    0.7476   -7.5396 H   0  0  0  0  0  0  0  0  0  0  0  0
    6.4748    3.1268   -8.7332 H   0  0  0  0  0  0  0  0  0  0  0  0
   10.5667    4.9702   -7.1770 H   0  0  0  0  0  0  0  0  0  0  0  0
   11.4958    3.4657   -7.4174 H   0  0  0  0  0  0  0  0  0  0  0  0
   10.7874    3.8142   -5.8295 H   0  0  0  0  0  0  0  0  0  0  0  0
    7.0501   -2.3765   -2.2380 H   0  0  0  0  0  0  0  0  0  0  0  0
    6.0543   -4.5667   -2.9721 H   0  0  0  0  0  0  0  0  0  0  0  0
    7.7599   -6.5299    0.4538 H   0  0  0  0  0  0  0  0  0  0  0  0
    8.7797   -4.3365    1.2019 H   0  0  0  0  0  0  0  0  0  0  0  0
    5.0343   -0.6368   -0.6887 H   0  0  0  0  0  0  0  0  0  0  0  0
    3.0003   -0.9735    0.7539 H   0  0  0  0  0  0  0  0  0  0  0  0
  1  2  1  0
  1 38  1  0
  1 39  1  0
  1 40  1  0
  2  3  1  0
  2 41  1  0
  2 42  1  0
  3  4  1  0
  4  5  2  0
  4 37  1  0
  5  6  1  0
  5 43  1  0
  6  7  2  0
  6 44  1  0
  7  8  1  0
  7 36  1  0
  8  9  1  0
 26  8  1  1
  9 10  1  0
  9 45  1  0
  9 46  1  0
 10 11  2  0
 10 12  1  0
 12 13  1  0
 12 47  1  0
 13 14  1  0
 13 48  1  0
 13 49  1  0
 14 15  2  0
 14 19  1  0
 15 16  1  0
 15 50  1  0
 16 17  2  0
 16 51  1  0
 17 18  1  0
 17 52  1  0
 18 19  2  0
 18 53  1  0
 19 20  1  0
 20 21  1  0
 20 24  1  0
 21 22  2  0
 21 54  1  0
 22 23  1  0
 22 55  1  0
 23 24  2  0
 24 25  1  0
 25 56  1  0
 25 57  1  0
 25 58  1  0
 26 27  2  0
 26 28  2  0
 26 29  1  0
 29 30  2  0
 29 35  1  0
 30 31  1  0
 30 59  1  0
 31 32  2  0
 31 60  1  0
 32 33  1  0
 32 34  1  0
 34 35  2  0
 34 61  1  0
 35 62  1  0
 36 37  2  0
 36 63  1  0
 37 64  1  0
M  END

