
     RDKit          3D

 88 96  0  0  0  0  0  0  0  0999 V2000
   10.4300    0.3307   -0.7386 C   0  0  0  0  0  0  0  0  0  0  0  0
    9.0597    0.7918   -1.3029 C   0  0  2  0  0  0  0  0  0  0  0  0
    9.2913    1.6849   -2.5509 C   0  0  0  0  0  0  0  0  0  0  0  0
    8.3269    1.6104   -0.2306 C   0  0  0  0  0  0  0  0  0  0  0  0
    8.9226    2.7786    0.2698 C   0  0  0  0  0  0  0  0  0  0  0  0
    8.3212    3.5752    1.2435 C   0  0  0  0  0  0  0  0  0  0  0  0
    7.0742    3.1971    1.7436 C   0  0  0  0  0  0  0  0  0  0  0  0
    6.4536    2.0448    1.2705 C   0  0  0  0  0  0  0  0  0  0  0  0
    7.0636    1.2386    0.2839 C   0  0  0  0  0  0  0  0  0  0  0  0
    6.4125    0.0797   -0.1756 N   0  0  0  0  0  0  0  0  0  0  0  0
    5.1294   -0.2605    0.3637 C   0  0  0  0  0  0  0  0  0  0  0  0
    3.9596    0.2165   -0.2416 C   0  0  0  0  0  0  0  0  0  0  0  0
    2.7102   -0.1148    0.2814 C   0  0  0  0  0  0  0  0  0  0  0  0
    2.5973   -0.9301    1.4223 C   0  0  0  0  0  0  0  0  0  0  0  0
    1.2818   -1.3077    2.0113 C   0  0  0  0  0  0  0  0  0  0  0  0
    0.0538   -0.9418    1.4383 C   0  0  0  0  0  0  0  0  0  0  0  0
   -1.1298   -1.3491    2.0734 C   0  0  0  0  0  0  0  0  0  0  0  0
   -2.4860   -1.0187    1.5522 C   0  0  0  0  0  0  0  0  0  0  0  0
   -2.6849   -0.3335    0.3397 C   0  0  0  0  0  0  0  0  0  0  0  0
   -3.9701   -0.0420   -0.1159 C   0  0  0  0  0  0  0  0  0  0  0  0
   -5.0904   -0.4283    0.6311 C   0  0  0  0  0  0  0  0  0  0  0  0
   -6.4103   -0.1276    0.1618 N   0  0  0  0  0  0  0  0  0  0  0  0
   -7.0739   -1.0568   -0.6594 C   0  0  0  0  0  0  0  0  0  0  0  0
   -6.4402   -2.2718   -1.0025 C   0  0  0  0  0  0  0  0  0  0  0  0
   -7.0725   -3.2097   -1.8133 C   0  0  0  0  0  0  0  0  0  0  0  0
   -8.3550   -2.9588   -2.3035 C   0  0  0  0  0  0  0  0  0  0  0  0
   -8.9796   -1.7591   -1.9642 C   0  0  0  0  0  0  0  0  0  0  0  0
   -8.3731   -0.7907   -1.1492 C   0  0  0  0  0  0  0  0  0  0  0  0
   -9.1326    0.5039   -0.8262 C   0  0  2  0  0  0  0  0  0  0  0  0
  -10.4592    0.1456   -0.1048 C   0  0  0  0  0  0  0  0  0  0  0  0
   -9.4513    1.2470   -2.1509 C   0  0  0  0  0  0  0  0  0  0  0  0
   -8.3044    1.4270    0.0787 C   0  0  0  0  0  0  0  0  0  0  0  0
   -8.8427    2.6588    0.4822 C   0  0  0  0  0  0  0  0  0  0  0  0
   -8.1539    3.5512    1.3029 C   0  0  0  0  0  0  0  0  0  0  0  0
   -6.8751    3.2071    1.7437 C   0  0  0  0  0  0  0  0  0  0  0  0
   -6.3094    1.9939    1.3633 C   0  0  0  0  0  0  0  0  0  0  0  0
   -7.0077    1.0910    0.5309 C   0  0  0  0  0  0  0  0  0  0  0  0
   -4.9038   -1.1123    1.8395 C   0  0  0  0  0  0  0  0  0  0  0  0
   -3.6189   -1.4045    2.2926 C   0  0  0  0  0  0  0  0  0  0  0  0
   -1.0711   -2.0698    3.2071 N   0  0  0  0  0  0  0  0  0  0  0  0
    0.1359   -2.3713    3.6746 C   0  0  0  0  0  0  0  0  0  0  0  0
    1.3062   -2.0344    3.1424 N   0  0  0  0  0  0  0  0  0  0  0  0
    3.7794   -1.4006    2.0239 C   0  0  0  0  0  0  0  0  0  0  0  0
    5.0286   -1.0719    1.5014 C   0  0  0  0  0  0  0  0  0  0  0  0
    6.9865   -0.7514   -1.1542 C   0  0  0  0  0  0  0  0  0  0  0  0
    6.3009   -1.9089   -1.5853 C   0  0  0  0  0  0  0  0  0  0  0  0
    6.8440   -2.7491   -2.5526 C   0  0  0  0  0  0  0  0  0  0  0  0
    8.0871   -2.4558   -3.1154 C   0  0  0  0  0  0  0  0  0  0  0  0
    8.7635   -1.3136   -2.6884 C   0  0  0  0  0  0  0  0  0  0  0  0
    8.2471   -0.4437   -1.7155 C   0  0  0  0  0  0  0  0  0  0  0  0
   10.9948   -0.2466   -1.4862 H   0  0  0  0  0  0  0  0  0  0  0  0
   11.0504    1.1915   -0.4466 H   0  0  0  0  0  0  0  0  0  0  0  0
   10.2921   -0.3055    0.1489 H   0  0  0  0  0  0  0  0  0  0  0  0
    8.3325    2.0257   -2.9702 H   0  0  0  0  0  0  0  0  0  0  0  0
    9.8874    2.5750   -2.2985 H   0  0  0  0  0  0  0  0  0  0  0  0
    9.8308    1.1368   -3.3382 H   0  0  0  0  0  0  0  0  0  0  0  0
    9.8985    3.0781   -0.1186 H   0  0  0  0  0  0  0  0  0  0  0  0
    8.8211    4.4767    1.6046 H   0  0  0  0  0  0  0  0  0  0  0  0
    6.5755    3.7986    2.5079 H   0  0  0  0  0  0  0  0  0  0  0  0
    5.4811    1.7628    1.6716 H   0  0  0  0  0  0  0  0  0  0  0  0
    4.0384    0.8514   -1.1265 H   0  0  0  0  0  0  0  0  0  0  0  0
    1.8205    0.2784   -0.2130 H   0  0  0  0  0  0  0  0  0  0  0  0
    0.0202   -0.3562    0.5228 H   0  0  0  0  0  0  0  0  0  0  0  0
   -1.8356   -0.0222   -0.2704 H   0  0  0  0  0  0  0  0  0  0  0  0
   -4.1157    0.4884   -1.0592 H   0  0  0  0  0  0  0  0  0  0  0  0
   -5.4400   -2.4830   -0.6273 H   0  0  0  0  0  0  0  0  0  0  0  0
   -6.5549   -4.1404   -2.0596 H   0  0  0  0  0  0  0  0  0  0  0  0
   -8.8645   -3.6849   -2.9409 H   0  0  0  0  0  0  0  0  0  0  0  0
   -9.9831   -1.5670   -2.3501 H   0  0  0  0  0  0  0  0  0  0  0  0
  -11.0904   -0.5033   -0.7307 H   0  0  0  0  0  0  0  0  0  0  0  0
  -11.0423    1.0493    0.1288 H   0  0  0  0  0  0  0  0  0  0  0  0
  -10.2591   -0.3833    0.8394 H   0  0  0  0  0  0  0  0  0  0  0  0
  -10.0122    2.1749   -1.9620 H   0  0  0  0  0  0  0  0  0  0  0  0
  -10.0601    0.6219   -2.8217 H   0  0  0  0  0  0  0  0  0  0  0  0
   -8.5244    1.5124   -2.6820 H   0  0  0  0  0  0  0  0  0  0  0  0
   -9.8433    2.9319    0.1400 H   0  0  0  0  0  0  0  0  0  0  0  0
   -8.6113    4.4998    1.5927 H   0  0  0  0  0  0  0  0  0  0  0  0
   -6.3084    3.8832    2.3892 H   0  0  0  0  0  0  0  0  0  0  0  0
   -5.3113    1.7394    1.7168 H   0  0  0  0  0  0  0  0  0  0  0  0
   -5.7779   -1.4136    2.4208 H   0  0  0  0  0  0  0  0  0  0  0  0
   -3.4642   -1.9386    3.2304 H   0  0  0  0  0  0  0  0  0  0  0  0
    0.1699   -2.9620    4.5989 H   0  0  0  0  0  0  0  0  0  0  0  0
    3.6914   -2.0296    2.9101 H   0  0  0  0  0  0  0  0  0  0  0  0
    5.9411   -1.4428    1.9731 H   0  0  0  0  0  0  0  0  0  0  0  0
    5.3305   -2.1523   -1.1550 H   0  0  0  0  0  0  0  0  0  0  0  0
    6.2880   -3.6372   -2.8639 H   0  0  0  0  0  0  0  0  0  0  0  0
    8.5267   -3.1054   -3.8755 H   0  0  0  0  0  0  0  0  0  0  0  0
    9.7363   -1.0884   -3.1310 H   0  0  0  0  0  0  0  0  0  0  0  0
  2  1  1  1
  1 51  1  0
  1 52  1  0
  1 53  1  0
  2  3  1  0
  2  4  1  0
  2 50  1  0
  3 54  1  0
  3 55  1  0
  3 56  1  0
  4  5  1  0
  4  9  2  0
  5  6  2  0
  5 57  1  0
  6  7  1  0
  6 58  1  0
  7  8  2  0
  7 59  1  0
  8  9  1  0
  8 60  1  0
  9 10  1  0
 10 11  1  0
 10 45  1  0
 11 12  2  0
 11 44  1  0
 12 13  1  0
 12 61  1  0
 13 14  2  0
 13 62  1  0
 14 15  1  0
 14 43  1  0
 15 16  2  0
 15 42  1  0
 16 17  1  0
 16 63  1  0
 17 18  1  0
 17 40  2  0
 18 19  2  0
 18 39  1  0
 19 20  1  0
 19 64  1  0
 20 21  2  0
 20 65  1  0
 21 22  1  0
 21 38  1  0
 22 23  1  0
 22 37  1  0
 23 24  2  0
 23 28  1  0
 24 25  1  0
 24 66  1  0
 25 26  2  0
 25 67  1  0
 26 27  1  0
 26 68  1  0
 27 28  2  0
 27 69  1  0
 28 29  1  0
 29 30  1  1
 29 31  1  0
 29 32  1  0
 30 70  1  0
 30 71  1  0
 30 72  1  0
 31 73  1  0
 31 74  1  0
 31 75  1  0
 32 33  2  0
 32 37  1  0
 33 34  1  0
 33 76  1  0
 34 35  2  0
 34 77  1  0
 35 36  1  0
 35 78  1  0
 36 37  2  0
 36 79  1  0
 38 39  2  0
 38 80  1  0
 39 81  1  0
 40 41  1  0
 41 42  2  0
 41 82  1  0
 43 44  2  0
 43 83  1  0
 44 84  1  0
 45 46  1  0
 45 50  2  0
 46 47  2  0
 46 85  1  0
 47 48  1  0
 47 86  1  0
 48 49  2  0
 48 87  1  0
 49 50  1  0
 49 88  1  0
M  END

