
     RDKit          3D

106119  0  0  0  0  0  0  0  0999 V2000
   -9.6710   -1.2976    2.9382 N   0  0  0  0  0  0  0  0  0  0  0  0
   -8.6407   -1.1701    2.4193 C   0  0  0  0  0  0  0  0  0  0  0  0
   -7.3462   -1.0498    1.8122 C   0  0  0  0  0  0  0  0  0  0  0  0
   -6.4126   -2.0797    2.0013 C   0  0  0  0  0  0  0  0  0  0  0  0
   -5.1072   -1.9752    1.5031 C   0  0  0  0  0  0  0  0  0  0  0  0
   -4.1570   -3.0129    1.7857 C   0  0  0  0  0  0  0  0  0  0  0  0
   -3.3973   -3.8540    2.0361 N   0  0  0  0  0  0  0  0  0  0  0  0
   -4.7297   -0.8164    0.7749 C   0  0  0  0  0  0  0  0  0  0  0  0
   -3.4342   -0.6975    0.2346 N   0  0  0  0  0  0  0  0  0  0  0  0
   -2.4810    0.2645    0.6016 C   0  0  0  0  0  0  0  0  0  0  0  0
   -2.5823    1.2932    1.5433 C   0  0  0  0  0  0  0  0  0  0  0  0
   -1.4680    2.1120    1.7335 C   0  0  0  0  0  0  0  0  0  0  0  0
   -0.2813    1.9052    1.0087 C   0  0  0  0  0  0  0  0  0  0  0  0
   -0.1808    0.8668    0.0831 C   0  0  0  0  0  0  0  0  0  0  0  0
   -1.2863    0.0278   -0.1288 C   0  0  0  0  0  0  0  0  0  0  0  0
   -1.5339   -1.1247   -0.9826 C   0  0  0  0  0  0  0  0  0  0  0  0
   -0.7516   -1.8285   -1.9230 C   0  0  0  0  0  0  0  0  0  0  0  0
    0.6831   -1.4883   -2.1681 C   0  0  0  0  0  0  0  0  0  0  0  0
    1.0517   -0.6751   -3.2477 C   0  0  0  0  0  0  0  0  0  0  0  0
    2.3967   -0.3625   -3.5044 C   0  0  0  0  0  0  0  0  0  0  0  0
    3.4209   -0.8503   -2.6923 C   0  0  0  0  0  0  0  0  0  0  0  0
    3.0585   -1.6583   -1.6098 C   0  0  0  0  0  0  0  0  0  0  0  0
    1.7052   -1.9921   -1.3351 C   0  0  0  0  0  0  0  0  0  0  0  0
    1.7135   -2.8637   -0.1687 C   0  0  0  0  0  0  0  0  0  0  0  0
    0.7096   -3.4895    0.5888 C   0  0  0  0  0  0  0  0  0  0  0  0
    1.0702   -4.2479    1.7012 C   0  0  0  0  0  0  0  0  0  0  0  0
    2.4193   -4.3847    2.0718 C   0  0  0  0  0  0  0  0  0  0  0  0
    3.4374   -3.7768    1.3358 C   0  0  0  0  0  0  0  0  0  0  0  0
    3.0704   -3.0305    0.2121 C   0  0  0  0  0  0  0  0  0  0  0  0
    3.8842   -2.3026   -0.6760 N   0  0  0  0  0  0  0  0  0  0  0  0
    5.2784   -2.1393   -0.5734 C   0  0  0  0  0  0  0  0  0  0  0  0
    5.8176   -0.8605   -0.3919 C   0  0  0  0  0  0  0  0  0  0  0  0
    7.1966   -0.6462   -0.2838 C   0  0  0  0  0  0  0  0  0  0  0  0
    7.6882    0.6594   -0.0972 N   0  0  0  0  0  0  0  0  0  0  0  0
    7.3007    1.5329    0.9338 C   0  0  0  0  0  0  0  0  0  0  0  0
    6.4827    1.2924    2.0432 C   0  0  0  0  0  0  0  0  0  0  0  0
    6.2850    2.3409    2.9441 C   0  0  0  0  0  0  0  0  0  0  0  0
    6.8915    3.5953    2.7515 C   0  0  0  0  0  0  0  0  0  0  0  0
    7.7162    3.8240    1.6504 C   0  0  0  0  0  0  0  0  0  0  0  0
    7.9280    2.7889    0.7290 C   0  0  0  0  0  0  0  0  0  0  0  0
    8.7122    2.6779   -0.4875 C   0  0  0  0  0  0  0  0  0  0  0  0
    9.5111    3.5796   -1.2044 C   0  0  0  0  0  0  0  0  0  0  0  0
   10.1132    3.1588   -2.3893 C   0  0  0  0  0  0  0  0  0  0  0  0
    9.9167    1.8505   -2.8667 C   0  0  0  0  0  0  0  0  0  0  0  0
    9.1274    0.9334   -2.1706 C   0  0  0  0  0  0  0  0  0  0  0  0
    8.5406    1.3564   -0.9738 C   0  0  0  0  0  0  0  0  0  0  0  0
    8.0709   -1.7630   -0.3362 C   0  0  0  0  0  0  0  0  0  0  0  0
    9.4842   -1.6223   -0.1330 C   0  0  0  0  0  0  0  0  0  0  0  0
   10.6293   -1.5511    0.0419 N   0  0  0  0  0  0  0  0  0  0  0  0
    7.5400   -3.0442   -0.5438 C   0  0  0  0  0  0  0  0  0  0  0  0
    6.1591   -3.2476   -0.6757 C   0  0  0  0  0  0  0  0  0  0  0  0
    5.6759   -4.5682   -0.9607 C   0  0  0  0  0  0  0  0  0  0  0  0
    5.3269   -5.6469   -1.2085 N   0  0  0  0  0  0  0  0  0  0  0  0
   -1.3508   -2.8883   -2.6155 C   0  0  0  0  0  0  0  0  0  0  0  0
   -2.6860   -3.2567   -2.3823 C   0  0  0  0  0  0  0  0  0  0  0  0
   -3.4658   -2.5905   -1.4380 C   0  0  0  0  0  0  0  0  0  0  0  0
   -2.8709   -1.5361   -0.7397 C   0  0  0  0  0  0  0  0  0  0  0  0
   -5.6664    0.2034    0.5831 C   0  0  0  0  0  0  0  0  0  0  0  0
   -6.9729    0.1086    1.0817 C   0  0  0  0  0  0  0  0  0  0  0  0
   -7.8928    1.1435    0.8355 N   0  0  0  0  0  0  0  0  0  0  0  0
   -7.6985    2.4972    1.1611 C   0  0  0  0  0  0  0  0  0  0  0  0
   -6.6730    3.0960    1.9002 C   0  0  0  0  0  0  0  0  0  0  0  0
   -6.7396    4.4755    2.1072 C   0  0  0  0  0  0  0  0  0  0  0  0
   -7.8055    5.2399    1.6002 C   0  0  0  0  0  0  0  0  0  0  0  0
   -8.8331    4.6343    0.8775 C   0  0  0  0  0  0  0  0  0  0  0  0
   -8.7867    3.2516    0.6523 C   0  0  0  0  0  0  0  0  0  0  0  0
   -9.6678    2.3195   -0.0275 C   0  0  0  0  0  0  0  0  0  0  0  0
  -10.8645    2.4727   -0.7415 C   0  0  0  0  0  0  0  0  0  0  0  0
  -11.4556    1.3519   -1.3226 C   0  0  0  0  0  0  0  0  0  0  0  0
  -10.8568    0.0849   -1.2044 C   0  0  0  0  0  0  0  0  0  0  0  0
   -9.6666   -0.0938   -0.4972 C   0  0  0  0  0  0  0  0  0  0  0  0
   -9.0887    1.0311    0.0991 C   0  0  0  0  0  0  0  0  0  0  0  0
   -6.6986   -2.9611    2.5766 H   0  0  0  0  0  0  0  0  0  0  0  0
   -3.4964    1.4515    2.1178 H   0  0  0  0  0  0  0  0  0  0  0  0
   -1.5216    2.9252    2.4616 H   0  0  0  0  0  0  0  0  0  0  0  0
    0.5741    2.5633    1.1778 H   0  0  0  0  0  0  0  0  0  0  0  0
    0.7454    0.7061   -0.4695 H   0  0  0  0  0  0  0  0  0  0  0  0
    0.2714   -0.2788   -3.9012 H   0  0  0  0  0  0  0  0  0  0  0  0
    2.6470    0.2706   -4.3591 H   0  0  0  0  0  0  0  0  0  0  0  0
    4.4644   -0.6144   -2.9068 H   0  0  0  0  0  0  0  0  0  0  0  0
   -0.3412   -3.3812    0.3207 H   0  0  0  0  0  0  0  0  0  0  0  0
    0.2909   -4.7330    2.2932 H   0  0  0  0  0  0  0  0  0  0  0  0
    2.6807   -4.9780    2.9515 H   0  0  0  0  0  0  0  0  0  0  0  0
    4.4808   -3.8877    1.6349 H   0  0  0  0  0  0  0  0  0  0  0  0
    5.1432   -0.0061   -0.3324 H   0  0  0  0  0  0  0  0  0  0  0  0
    6.0167    0.3200    2.2114 H   0  0  0  0  0  0  0  0  0  0  0  0
    5.6494    2.1778    3.8179 H   0  0  0  0  0  0  0  0  0  0  0  0
    6.7182    4.3943    3.4760 H   0  0  0  0  0  0  0  0  0  0  0  0
    8.1948    4.7960    1.5085 H   0  0  0  0  0  0  0  0  0  0  0  0
    9.6541    4.6002   -0.8411 H   0  0  0  0  0  0  0  0  0  0  0  0
   10.7399    3.8507   -2.9566 H   0  0  0  0  0  0  0  0  0  0  0  0
   10.3916    1.5407   -3.8007 H   0  0  0  0  0  0  0  0  0  0  0  0
    8.9824   -0.0769   -2.5560 H   0  0  0  0  0  0  0  0  0  0  0  0
    8.2146   -3.8992   -0.6032 H   0  0  0  0  0  0  0  0  0  0  0  0
   -0.7580   -3.4441   -3.3451 H   0  0  0  0  0  0  0  0  0  0  0  0
   -3.1190   -4.0874   -2.9445 H   0  0  0  0  0  0  0  0  0  0  0  0
   -4.5000   -2.8872   -1.2566 H   0  0  0  0  0  0  0  0  0  0  0  0
   -5.3840    1.0770   -0.0052 H   0  0  0  0  0  0  0  0  0  0  0  0
   -5.8491    2.5117    2.3126 H   0  0  0  0  0  0  0  0  0  0  0  0
   -5.9488    4.9664    2.6796 H   0  0  0  0  0  0  0  0  0  0  0  0
   -7.8297    6.3169    1.7811 H   0  0  0  0  0  0  0  0  0  0  0  0
   -9.6663    5.2284    0.4946 H   0  0  0  0  0  0  0  0  0  0  0  0
  -11.3230    3.4591   -0.8457 H   0  0  0  0  0  0  0  0  0  0  0  0
  -12.3892    1.4567   -1.8801 H   0  0  0  0  0  0  0  0  0  0  0  0
  -11.3307   -0.7809   -1.6731 H   0  0  0  0  0  0  0  0  0  0  0  0
   -9.2134   -1.0830   -0.4192 H   0  0  0  0  0  0  0  0  0  0  0  0
  1  2  3  0
  2  3  1  0
  3  4  2  0
  3 59  1  0
  4  5  1  0
  4 73  1  0
  5  6  1  0
  5  8  2  0
  6  7  3  0
  8  9  1  0
  8 58  1  0
  9 10  1  0
  9 57  1  0
 10 11  2  0
 10 15  1  0
 11 12  1  0
 11 74  1  0
 12 13  2  0
 12 75  1  0
 13 14  1  0
 13 76  1  0
 14 15  2  0
 14 77  1  0
 15 16  1  0
 16 17  1  0
 16 57  2  0
 17 18  1  0
 17 54  2  0
 18 19  2  0
 18 23  1  0
 19 20  1  0
 19 78  1  0
 20 21  2  0
 20 79  1  0
 21 22  1  0
 21 80  1  0
 22 23  2  0
 22 30  1  0
 23 24  1  0
 24 25  2  0
 24 29  1  0
 25 26  1  0
 25 81  1  0
 26 27  2  0
 26 82  1  0
 27 28  1  0
 27 83  1  0
 28 29  2  0
 28 84  1  0
 29 30  1  0
 30 31  1  0
 31 32  2  0
 31 51  1  0
 32 33  1  0
 32 85  1  0
 33 34  1  0
 33 47  2  0
 34 35  1  0
 34 46  1  0
 35 36  2  0
 35 40  1  0
 36 37  1  0
 36 86  1  0
 37 38  2  0
 37 87  1  0
 38 39  1  0
 38 88  1  0
 39 40  2  0
 39 89  1  0
 40 41  1  0
 41 42  1  0
 41 46  2  0
 42 43  2  0
 42 90  1  0
 43 44  1  0
 43 91  1  0
 44 45  2  0
 44 92  1  0
 45 46  1  0
 45 93  1  0
 47 48  1  0
 47 50  1  0
 48 49  3  0
 50 51  2  0
 50 94  1  0
 51 52  1  0
 52 53  3  0
 54 55  1  0
 54 95  1  0
 55 56  2  0
 55 96  1  0
 56 57  1  0
 56 97  1  0
 58 59  2  0
 58 98  1  0
 59 60  1  0
 60 61  1  0
 60 72  1  0
 61 62  2  0
 61 66  1  0
 62 63  1  0
 62 99  1  0
 63 64  2  0
 63100  1  0
 64 65  1  0
 64101  1  0
 65 66  2  0
 65102  1  0
 66 67  1  0
 67 68  1  0
 67 72  2  0
 68 69  2  0
 68103  1  0
 69 70  1  0
 69104  1  0
 70 71  2  0
 70105  1  0
 71 72  1  0
 71106  1  0
M  END

