
     RDKit          3D

 56 62  0  0  0  0  0  0  0  0999 V2000
    2.3762   -6.0030    0.2972 N   0  0  0  0  0  0  0  0  0  0  0  0
    2.1898   -4.8735    0.1056 C   0  0  0  0  0  0  0  0  0  0  0  0
    1.9305   -3.4795   -0.1124 C   0  0  0  0  0  0  0  0  0  0  0  0
    0.7512   -2.9091    0.3858 C   0  0  0  0  0  0  0  0  0  0  0  0
    0.4435   -1.5551    0.1971 C   0  0  0  0  0  0  0  0  0  0  0  0
   -0.7531   -1.0252    0.7319 N   0  0  0  0  0  0  0  0  0  0  0  0
   -1.8000   -0.6238   -0.1374 C   0  0  0  0  0  0  0  0  0  0  0  0
   -1.8251   -0.9442   -1.5005 C   0  0  0  0  0  0  0  0  0  0  0  0
   -2.8747   -0.5138   -2.3196 C   0  0  0  0  0  0  0  0  0  0  0  0
   -3.9300    0.2213   -1.7811 C   0  0  0  0  0  0  0  0  0  0  0  0
   -3.9378    0.5144   -0.4135 C   0  0  0  0  0  0  0  0  0  0  0  0
   -2.8861    0.0963    0.3967 C   0  0  0  0  0  0  0  0  0  0  0  0
   -2.9461    0.4050    1.7311 O   0  0  0  0  0  0  0  0  0  0  0  0
   -2.1113   -0.2585    2.5939 C   0  0  0  0  0  0  0  0  0  0  0  0
   -2.3944   -0.1592    3.9532 C   0  0  0  0  0  0  0  0  0  0  0  0
   -1.5551   -0.7607    4.8958 C   0  0  0  0  0  0  0  0  0  0  0  0
   -0.4329   -1.4616    4.4588 C   0  0  0  0  0  0  0  0  0  0  0  0
   -0.1549   -1.5717    3.0908 C   0  0  0  0  0  0  0  0  0  0  0  0
   -0.9905   -0.9813    2.1323 C   0  0  0  0  0  0  0  0  0  0  0  0
    1.3434   -0.7421   -0.5500 C   0  0  0  0  0  0  0  0  0  0  0  0
    1.0692    0.6233   -0.7938 N   0  0  0  0  0  0  0  0  0  0  0  0
    1.0818    1.5505    0.2799 C   0  0  0  0  0  0  0  0  0  0  0  0
    1.5963    1.2447    1.5460 C   0  0  0  0  0  0  0  0  0  0  0  0
    1.5744    2.1905    2.5770 C   0  0  0  0  0  0  0  0  0  0  0  0
    1.0619    3.4669    2.3486 C   0  0  0  0  0  0  0  0  0  0  0  0
    0.5814    3.7987    1.0776 C   0  0  0  0  0  0  0  0  0  0  0  0
    0.5926    2.8522    0.0574 C   0  0  0  0  0  0  0  0  0  0  0  0
    0.1162    3.2313   -1.1711 O   0  0  0  0  0  0  0  0  0  0  0  0
    0.4098    2.4463   -2.2570 C   0  0  0  0  0  0  0  0  0  0  0  0
    0.1872    2.9959   -3.5163 C   0  0  0  0  0  0  0  0  0  0  0  0
    0.4090    2.2358   -4.6686 C   0  0  0  0  0  0  0  0  0  0  0  0
    0.8567    0.9223   -4.5418 C   0  0  0  0  0  0  0  0  0  0  0  0
    1.0921    0.3735   -3.2753 C   0  0  0  0  0  0  0  0  0  0  0  0
    0.8821    1.1245   -2.1102 C   0  0  0  0  0  0  0  0  0  0  0  0
    2.5281   -1.3121   -1.0350 C   0  0  0  0  0  0  0  0  0  0  0  0
    2.8393   -2.6637   -0.8328 C   0  0  0  0  0  0  0  0  0  0  0  0
    4.0703   -3.1912   -1.3470 C   0  0  0  0  0  0  0  0  0  0  0  0
    5.0716   -3.5931   -1.7749 N   0  0  0  0  0  0  0  0  0  0  0  0
    0.0393   -3.5404    0.9184 H   0  0  0  0  0  0  0  0  0  0  0  0
   -1.0145   -1.5315   -1.9317 H   0  0  0  0  0  0  0  0  0  0  0  0
   -2.8581   -0.7625   -3.3827 H   0  0  0  0  0  0  0  0  0  0  0  0
   -4.7518    0.5609   -2.4150 H   0  0  0  0  0  0  0  0  0  0  0  0
   -4.7527    1.0727    0.0512 H   0  0  0  0  0  0  0  0  0  0  0  0
   -3.2773    0.4104    4.2494 H   0  0  0  0  0  0  0  0  0  0  0  0
   -1.7797   -0.6742    5.9609 H   0  0  0  0  0  0  0  0  0  0  0  0
    0.2417   -1.9320    5.1775 H   0  0  0  0  0  0  0  0  0  0  0  0
    0.7367   -2.1139    2.7788 H   0  0  0  0  0  0  0  0  0  0  0  0
    2.0142    0.2558    1.7341 H   0  0  0  0  0  0  0  0  0  0  0  0
    1.9653    1.9178    3.5594 H   0  0  0  0  0  0  0  0  0  0  0  0
    1.0412    4.2094    3.1490 H   0  0  0  0  0  0  0  0  0  0  0  0
    0.1875    4.7915    0.8520 H   0  0  0  0  0  0  0  0  0  0  0  0
   -0.1753    4.0244   -3.5664 H   0  0  0  0  0  0  0  0  0  0  0  0
    0.2271    2.6712   -5.6533 H   0  0  0  0  0  0  0  0  0  0  0  0
    1.0283    0.3070   -5.4277 H   0  0  0  0  0  0  0  0  0  0  0  0
    1.4285   -0.6602   -3.2059 H   0  0  0  0  0  0  0  0  0  0  0  0
    3.2373   -0.6774   -1.5670 H   0  0  0  0  0  0  0  0  0  0  0  0
  1  2  3  0
  2  3  1  0
  3  4  2  0
  3 36  1  0
  4  5  1  0
  4 39  1  0
  5  6  1  0
  5 20  2  0
  6  7  1  0
  6 19  1  0
  7  8  2  0
  7 12  1  0
  8  9  1  0
  8 40  1  0
  9 10  2  0
  9 41  1  0
 10 11  1  0
 10 42  1  0
 11 12  2  0
 11 43  1  0
 12 13  1  0
 13 14  1  0
 14 15  2  0
 14 19  1  0
 15 16  1  0
 15 44  1  0
 16 17  2  0
 16 45  1  0
 17 18  1  0
 17 46  1  0
 18 19  2  0
 18 47  1  0
 20 21  1  0
 20 35  1  0
 21 22  1  0
 21 34  1  0
 22 23  2  0
 22 27  1  0
 23 24  1  0
 23 48  1  0
 24 25  2  0
 24 49  1  0
 25 26  1  0
 25 50  1  0
 26 27  2  0
 26 51  1  0
 27 28  1  0
 28 29  1  0
 29 30  2  0
 29 34  1  0
 30 31  1  0
 30 52  1  0
 31 32  2  0
 31 53  1  0
 32 33  1  0
 32 54  1  0
 33 34  2  0
 33 55  1  0
 35 36  2  0
 35 56  1  0
 36 37  1  0
 37 38  3  0
M  END

