
     RDKit          3D

 48 50  0  0  0  0  0  0  0  0999 V2000
    3.3726   -5.7548   -2.8956 N   0  0  0  0  0  0  0  0  0  0  0  0
    2.6980   -7.0199   -3.1482 C   0  0  0  0  0  0  0  0  0  0  0  0
    1.8972   -7.4905   -1.9184 C   0  0  1  0  0  0  0  0  0  0  0  0
    1.0543   -6.4301   -1.3830 N   0  0  0  0  0  0  0  0  0  0  0  0
    1.4935   -5.5869   -0.4099 C   0  0  0  0  0  0  0  0  0  0  0  0
    2.5509   -5.7358    0.1881 O   0  0  0  0  0  0  0  0  0  0  0  0
    0.5820   -4.3953   -0.1016 C   0  0  0  0  0  0  0  0  0  0  0  0
   -0.9142   -4.6600    0.0022 C   0  0  0  0  0  0  0  0  0  0  0  0
   -1.4294   -4.9586   -1.2912 O   0  0  0  0  0  0  0  0  0  0  0  0
   -2.7529   -5.2412   -1.4572 C   0  0  0  0  0  0  0  0  0  0  0  0
   -3.6844   -5.1654   -0.4119 C   0  0  0  0  0  0  0  0  0  0  0  0
   -5.0288   -5.4754   -0.6404 C   0  0  0  0  0  0  0  0  0  0  0  0
   -5.4531   -5.8678   -1.9086 C   0  0  0  0  0  0  0  0  0  0  0  0
   -4.5200   -5.9487   -2.9458 C   0  0  0  0  0  0  0  0  0  0  0  0
   -3.1635   -5.6423   -2.7557 C   0  0  0  0  0  0  0  0  0  0  0  0
   -2.2068   -5.7713   -3.8915 C   0  0  0  0  0  0  0  0  0  0  0  0
   -1.2722   -4.7642   -4.2010 C   0  0  0  0  0  0  0  0  0  0  0  0
   -0.4149   -4.8932   -5.2958 C   0  0  0  0  0  0  0  0  0  0  0  0
   -0.4677   -6.0321   -6.1060 C   0  0  0  0  0  0  0  0  0  0  0  0
   -1.3879   -7.0422   -5.8111 C   0  0  0  0  0  0  0  0  0  0  0  0
   -2.2463   -6.9125   -4.7163 C   0  0  0  0  0  0  0  0  0  0  0  0
    1.0827   -8.7335   -2.2241 C   0  0  1  0  0  0  0  0  0  0  0  0
    1.7095  -10.1002   -2.0972 C   0  0  0  0  0  0  0  0  0  0  0  0
    0.6615   -9.6539   -1.1093 C   0  0  0  0  0  0  0  0  0  0  0  0
    3.9823   -5.5076   -3.6734 H   0  0  0  0  0  0  0  0  0  0  0  0
    3.9514   -5.8128   -2.0570 H   0  0  0  0  0  0  0  0  0  0  0  0
    3.3687   -7.8595   -3.4339 H   0  0  0  0  0  0  0  0  0  0  0  0
    2.0000   -6.8809   -3.9946 H   0  0  0  0  0  0  0  0  0  0  0  0
    2.6144   -7.7221   -1.1144 H   0  0  0  0  0  0  0  0  0  0  0  0
    0.2178   -6.1672   -1.8964 H   0  0  0  0  0  0  0  0  0  0  0  0
    0.7588   -3.6255   -0.8729 H   0  0  0  0  0  0  0  0  0  0  0  0
    0.9375   -3.9834    0.8534 H   0  0  0  0  0  0  0  0  0  0  0  0
   -1.4185   -3.7624    0.4032 H   0  0  0  0  0  0  0  0  0  0  0  0
   -1.1213   -5.4994    0.6911 H   0  0  0  0  0  0  0  0  0  0  0  0
   -3.3694   -4.8681    0.5878 H   0  0  0  0  0  0  0  0  0  0  0  0
   -5.7415   -5.4059    0.1854 H   0  0  0  0  0  0  0  0  0  0  0  0
   -6.5027   -6.1054   -2.0955 H   0  0  0  0  0  0  0  0  0  0  0  0
   -4.8500   -6.2418   -3.9453 H   0  0  0  0  0  0  0  0  0  0  0  0
   -1.2246   -3.8684   -3.5810 H   0  0  0  0  0  0  0  0  0  0  0  0
    0.2994   -4.0962   -5.5171 H   0  0  0  0  0  0  0  0  0  0  0  0
    0.2048   -6.1314   -6.9619 H   0  0  0  0  0  0  0  0  0  0  0  0
   -1.4363   -7.9396   -6.4336 H   0  0  0  0  0  0  0  0  0  0  0  0
   -2.9514   -7.7148   -4.4854 H   0  0  0  0  0  0  0  0  0  0  0  0
    0.3659   -8.6067   -3.0453 H   0  0  0  0  0  0  0  0  0  0  0  0
    2.7466  -10.1544   -1.7518 H   0  0  0  0  0  0  0  0  0  0  0  0
    1.4452  -10.8647   -2.8333 H   0  0  0  0  0  0  0  0  0  0  0  0
    0.9865   -9.4005   -0.0958 H   0  0  0  0  0  0  0  0  0  0  0  0
   -0.3310  -10.1103   -1.1602 H   0  0  0  0  0  0  0  0  0  0  0  0
  1  2  1  0
  1 25  1  0
  1 26  1  0
  2  3  1  0
  2 27  1  0
  2 28  1  0
  3  4  1  0
  3 22  1  0
  3 29  1  1
  4  5  1  0
  4 30  1  0
  5  6  2  0
  5  7  1  0
  7  8  1  0
  7 31  1  0
  7 32  1  0
  8  9  1  0
  8 33  1  0
  8 34  1  0
  9 10  1  0
 10 11  2  0
 10 15  1  0
 11 12  1  0
 11 35  1  0
 12 13  2  0
 12 36  1  0
 13 14  1  0
 13 37  1  0
 14 15  2  0
 14 38  1  0
 15 16  1  0
 16 17  2  0
 16 21  1  0
 17 18  1  0
 17 39  1  0
 18 19  2  0
 18 40  1  0
 19 20  1  0
 19 41  1  0
 20 21  2  0
 20 42  1  0
 21 43  1  0
 22 23  1  0
 22 24  1  0
 22 44  1  6
 23 24  1  0
 23 45  1  0
 23 46  1  0
 24 47  1  0
 24 48  1  0
M  END

