
     RDKit          3D

 30 31  0  0  0  0  0  0  0  0999 V2000
    0.9408    0.3070   -0.1400 N   0  0  0  0  0  0  0  0  0  0  0  0
    2.0916    0.1848   -0.0766 C   0  0  0  0  0  0  0  0  0  0  0  0
    3.5547    0.0599   -0.0087 C   0  0  1  0  0  0  0  0  0  0  0  0
    4.2051    1.2074   -0.8581 C   0  0  0  0  0  0  0  0  0  0  0  0
    4.7805    2.1142   -0.3077 O   0  0  0  0  0  0  0  0  0  0  0  0
    4.1079    1.1374   -2.3565 C   0  0  0  0  0  0  0  0  0  0  0  0
    3.4176    0.1241   -3.0453 C   0  0  0  0  0  0  0  0  0  0  0  0
    3.3755    0.1192   -4.4395 C   0  0  0  0  0  0  0  0  0  0  0  0
    4.0328    1.1345   -5.1318 C   0  0  0  0  0  0  0  0  0  0  0  0
    3.9949    1.1289   -6.6153 N   0  0  0  0  0  0  0  0  0  0  0  0
    3.3915    0.2185   -7.1563 O   0  0  0  0  0  0  0  0  0  0  0  0
    4.5715    2.0344   -7.1923 O   0  0  0  0  0  0  0  0  0  0  0  0
    4.7241    2.1560   -4.4780 C   0  0  0  0  0  0  0  0  0  0  0  0
    4.7558    2.1514   -3.0871 C   0  0  0  0  0  0  0  0  0  0  0  0
    4.0707    0.0292    1.4215 C   0  0  0  0  0  0  0  0  0  0  0  0
    4.9651   -0.9739    1.8170 C   0  0  0  0  0  0  0  0  0  0  0  0
    5.4770   -1.0071    3.1163 C   0  0  0  0  0  0  0  0  0  0  0  0
    5.0808   -0.0221    4.0170 C   0  0  0  0  0  0  0  0  0  0  0  0
    5.5626   -0.0468    5.2655 F   0  0  0  0  0  0  0  0  0  0  0  0
    4.1911    0.9875    3.6517 C   0  0  0  0  0  0  0  0  0  0  0  0
    3.6904    1.0089    2.3507 C   0  0  0  0  0  0  0  0  0  0  0  0
    3.8154   -0.8943   -0.4952 H   0  0  0  0  0  0  0  0  0  0  0  0
    2.8891   -0.6649   -2.5091 H   0  0  0  0  0  0  0  0  0  0  0  0
    2.8439   -0.6519   -4.9960 H   0  0  0  0  0  0  0  0  0  0  0  0
    5.2197    2.9287   -5.0651 H   0  0  0  0  0  0  0  0  0  0  0  0
    5.2836    2.9316   -2.5365 H   0  0  0  0  0  0  0  0  0  0  0  0
    5.2710   -1.7457    1.1053 H   0  0  0  0  0  0  0  0  0  0  0  0
    6.1721   -1.7843    3.4390 H   0  0  0  0  0  0  0  0  0  0  0  0
    3.9034    1.7407    4.3874 H   0  0  0  0  0  0  0  0  0  0  0  0
    2.9929    1.7967    2.0590 H   0  0  0  0  0  0  0  0  0  0  0  0
  1  2  3  0
  2  3  1  0
  3  4  1  0
  3 15  1  0
  3 22  1  6
  4  5  2  0
  4  6  1  0
  6  7  2  0
  6 14  1  0
  7  8  1  0
  7 23  1  0
  8  9  2  0
  8 24  1  0
  9 10  1  0
  9 13  1  0
 10 11  2  0
 10 12  1  0
 13 14  2  0
 13 25  1  0
 14 26  1  0
 15 16  2  0
 15 21  1  0
 16 17  1  0
 16 27  1  0
 17 18  2  0
 17 28  1  0
 18 19  1  0
 18 20  1  0
 20 21  2  0
 20 29  1  0
 21 30  1  0
M  CHG  2  10   1  12  -1
M  END

