
     RDKit          3D

 23 22  0  0  0  0  0  0  0  0999 V2000
    1.3116   -0.6432   -0.0239 C   0  0  0  0  0  0  0  0  0  0  0  0
    2.7217   -0.1134   -0.2650 C   0  0  0  0  0  0  0  0  0  0  0  0
    3.2974   -0.5843   -1.9413 S   0  0  0  0  0  0  0  0  0  0  0  0
    4.9652    0.1761   -1.9127 C   0  0  0  0  0  0  0  0  0  0  0  0
    5.6668   -0.0782   -3.2416 C   0  0  0  0  0  0  0  0  0  0  0  0
    7.3227    0.7307   -3.2360 S   0  0  0  0  0  0  0  0  0  0  0  0
    8.0203    0.0384   -4.7916 C   0  0  0  0  0  0  0  0  0  0  0  0
    8.8968   -1.1924   -4.5438 C   0  0  0  0  0  0  0  0  0  0  0  0
    8.2495   -2.1888   -3.7898 O   0  0  0  0  0  0  0  0  0  0  0  0
    0.9640   -0.3615    0.9829 H   0  0  0  0  0  0  0  0  0  0  0  0
    1.2793   -1.7416   -0.0994 H   0  0  0  0  0  0  0  0  0  0  0  0
    0.5995   -0.2315   -0.7565 H   0  0  0  0  0  0  0  0  0  0  0  0
    3.4243   -0.5237    0.4794 H   0  0  0  0  0  0  0  0  0  0  0  0
    2.7453    0.9856   -0.1775 H   0  0  0  0  0  0  0  0  0  0  0  0
    5.5497   -0.2537   -1.0824 H   0  0  0  0  0  0  0  0  0  0  0  0
    4.8669    1.2596   -1.7315 H   0  0  0  0  0  0  0  0  0  0  0  0
    5.0727    0.3344   -4.0728 H   0  0  0  0  0  0  0  0  0  0  0  0
    5.8041   -1.1554   -3.4150 H   0  0  0  0  0  0  0  0  0  0  0  0
    8.6065    0.8405   -5.2674 H   0  0  0  0  0  0  0  0  0  0  0  0
    7.1780   -0.2002   -5.4591 H   0  0  0  0  0  0  0  0  0  0  0  0
    9.8439   -0.8721   -4.0634 H   0  0  0  0  0  0  0  0  0  0  0  0
    9.1648   -1.6446   -5.5140 H   0  0  0  0  0  0  0  0  0  0  0  0
    8.0599   -1.7905   -2.9258 H   0  0  0  0  0  0  0  0  0  0  0  0
  1  2  1  0
  1 10  1  0
  1 11  1  0
  1 12  1  0
  2  3  1  0
  2 13  1  0
  2 14  1  0
  3  4  1  0
  4  5  1  0
  4 15  1  0
  4 16  1  0
  5  6  1  0
  5 17  1  0
  5 18  1  0
  6  7  1  0
  7  8  1  0
  7 19  1  0
  7 20  1  0
  8  9  1  0
  8 21  1  0
  8 22  1  0
  9 23  1  0
M  END

