
     RDKit          3D

 34 34  0  0  0  0  0  0  0  0999 V2000
    2.1592    1.1789   -0.5606 C   0  0  0  0  0  0  0  0  0  0  0  0
    2.4214   -0.2423   -0.7398 N   0  0  0  0  0  0  0  0  0  0  0  0
    2.6740   -1.0238    0.4591 C   0  0  1  0  0  0  0  0  0  0  0  0
    2.2473   -2.5050    0.2639 C   0  0  0  0  0  0  0  0  0  0  0  0
    2.9062   -3.2611   -0.8702 C   0  0  0  0  0  0  0  0  0  0  0  0
    3.9216   -4.1994   -0.6282 C   0  0  0  0  0  0  0  0  0  0  0  0
    4.5188   -4.8979   -1.6803 C   0  0  0  0  0  0  0  0  0  0  0  0
    4.1169   -4.6757   -2.9996 C   0  0  0  0  0  0  0  0  0  0  0  0
    3.1030   -3.7447   -3.2399 C   0  0  0  0  0  0  0  0  0  0  0  0
    2.5752   -3.4561   -4.8872 Cl  0  0  0  0  0  0  0  0  0  0  0  0
    2.4952   -3.0445   -2.1960 C   0  0  0  0  0  0  0  0  0  0  0  0
    4.1209   -0.8935    0.9942 C   0  0  1  0  0  0  0  0  0  0  0  0
    4.9831   -1.0409   -0.0803 O   0  0  0  0  0  0  0  0  0  0  0  0
    6.3564   -1.1095    0.2407 C   0  0  0  0  0  0  0  0  0  0  0  0
    4.3588    0.3710    1.5900 O   0  0  0  0  0  0  0  0  0  0  0  0
    4.0625    0.4672    2.9597 C   0  0  0  0  0  0  0  0  0  0  0  0
    1.9287    1.6302   -1.5394 H   0  0  0  0  0  0  0  0  0  0  0  0
    2.9874    1.7507   -0.1006 H   0  0  0  0  0  0  0  0  0  0  0  0
    1.2666    1.3151    0.0739 H   0  0  0  0  0  0  0  0  0  0  0  0
    3.1966   -0.3786   -1.3869 H   0  0  0  0  0  0  0  0  0  0  0  0
    2.0205   -0.6305    1.2569 H   0  0  0  0  0  0  0  0  0  0  0  0
    1.1588   -2.4923    0.0980 H   0  0  0  0  0  0  0  0  0  0  0  0
    2.4202   -3.0479    1.2081 H   0  0  0  0  0  0  0  0  0  0  0  0
    4.2454   -4.3899    0.3988 H   0  0  0  0  0  0  0  0  0  0  0  0
    5.3053   -5.6286   -1.4740 H   0  0  0  0  0  0  0  0  0  0  0  0
    4.5719   -5.2163   -3.8310 H   0  0  0  0  0  0  0  0  0  0  0  0
    1.7089   -2.3196   -2.4091 H   0  0  0  0  0  0  0  0  0  0  0  0
    4.3185   -1.6781    1.7635 H   0  0  0  0  0  0  0  0  0  0  0  0
    6.9047   -1.2394   -0.7025 H   0  0  0  0  0  0  0  0  0  0  0  0
    6.5723   -1.9739    0.8987 H   0  0  0  0  0  0  0  0  0  0  0  0
    6.7006   -0.1888    0.7400 H   0  0  0  0  0  0  0  0  0  0  0  0
    4.3705    1.4679    3.2957 H   0  0  0  0  0  0  0  0  0  0  0  0
    4.6114   -0.2895    3.5559 H   0  0  0  0  0  0  0  0  0  0  0  0
    2.9820    0.3507    3.1747 H   0  0  0  0  0  0  0  0  0  0  0  0
  1  2  1  0
  1 17  1  0
  1 18  1  0
  1 19  1  0
  2  3  1  0
  2 20  1  0
  3  4  1  0
  3 12  1  0
  3 21  1  1
  4  5  1  0
  4 22  1  0
  4 23  1  0
  5  6  2  0
  5 11  1  0
  6  7  1  0
  6 24  1  0
  7  8  2  0
  7 25  1  0
  8  9  1  0
  8 26  1  0
  9 10  1  0
  9 11  2  0
 11 27  1  0
 12 13  1  0
 12 15  1  0
 12 28  1  1
 13 14  1  0
 14 29  1  0
 14 30  1  0
 14 31  1  0
 15 16  1  0
 16 32  1  0
 16 33  1  0
 16 34  1  0
M  END

