
     RDKit          3D

 68 76  0  0  0  0  0  0  0  0999 V2000
   -4.6202   -4.1141    2.7488 C   0  0  0  0  0  0  0  0  0  0  0  0
   -3.3314   -3.6096    2.5440 C   0  0  0  0  0  0  0  0  0  0  0  0
   -3.1510   -2.4023    1.8689 C   0  0  0  0  0  0  0  0  0  0  0  0
   -4.2609   -1.6836    1.3898 C   0  0  0  0  0  0  0  0  0  0  0  0
   -4.0714   -0.3981    0.6709 C   0  0  0  0  0  0  0  0  0  0  0  0
   -5.1589    0.2589    0.2471 N   0  0  0  0  0  0  0  0  0  0  0  0
   -4.9473    1.4149   -0.3944 C   0  0  0  0  0  0  0  0  0  0  0  0
   -6.1272    2.1755   -0.8800 C   0  0  0  0  0  0  0  0  0  0  0  0
   -5.9581    3.3913   -1.5660 C   0  0  0  0  0  0  0  0  0  0  0  0
   -7.0674    4.1039   -2.0215 C   0  0  0  0  0  0  0  0  0  0  0  0
   -8.3582    3.6125   -1.7981 C   0  0  0  0  0  0  0  0  0  0  0  0
   -8.5350    2.4035   -1.1162 C   0  0  0  0  0  0  0  0  0  0  0  0
   -7.4278    1.6885   -0.6597 C   0  0  0  0  0  0  0  0  0  0  0  0
   -3.7281    1.9240   -0.6214 N   0  0  0  0  0  0  0  0  0  0  0  0
   -2.6943    1.2064   -0.1679 C   0  0  0  0  0  0  0  0  0  0  0  0
   -1.3213    1.7341   -0.3959 C   0  0  0  0  0  0  0  0  0  0  0  0
   -1.1276    2.9697   -1.0354 C   0  0  0  0  0  0  0  0  0  0  0  0
    0.1644    3.4538   -1.2419 C   0  0  0  0  0  0  0  0  0  0  0  0
    1.2730    2.7222   -0.8096 C   0  0  0  0  0  0  0  0  0  0  0  0
    1.0888    1.4801   -0.1816 C   0  0  0  0  0  0  0  0  0  0  0  0
    2.2116    0.7252    0.2536 N   0  0  0  0  0  0  0  0  0  0  0  0
    2.4469    0.2981    1.5653 C   0  0  0  0  0  0  0  0  0  0  0  0
    1.6915    0.5136    2.7249 C   0  0  0  0  0  0  0  0  0  0  0  0
    2.1744   -0.0146    3.9232 C   0  0  0  0  0  0  0  0  0  0  0  0
    3.3815   -0.7378    3.9758 C   0  0  0  0  0  0  0  0  0  0  0  0
    4.1382   -0.9423    2.8233 C   0  0  0  0  0  0  0  0  0  0  0  0
    3.6732   -0.4205    1.6069 C   0  0  0  0  0  0  0  0  0  0  0  0
    4.1877   -0.4232    0.2578 C   0  0  0  0  0  0  0  0  0  0  0  0
    5.3082   -0.9492   -0.3870 C   0  0  0  0  0  0  0  0  0  0  0  0
    6.3114   -1.6620    0.2063 O   0  0  0  0  0  0  0  0  0  0  0  0
    7.2007   -1.9817   -0.7899 C   0  0  0  0  0  0  0  0  0  0  0  0
    8.3740   -2.7067   -0.6191 C   0  0  0  0  0  0  0  0  0  0  0  0
    9.1500   -2.9299   -1.7616 C   0  0  0  0  0  0  0  0  0  0  0  0
    8.7528   -2.4396   -3.0187 C   0  0  0  0  0  0  0  0  0  0  0  0
    7.5695   -1.7127   -3.1693 C   0  0  0  0  0  0  0  0  0  0  0  0
    6.7750   -1.4762   -2.0381 C   0  0  0  0  0  0  0  0  0  0  0  0
    5.5198   -0.7930   -1.7699 C   0  0  0  0  0  0  0  0  0  0  0  0
    4.5756   -0.0905   -2.5468 C   0  0  0  0  0  0  0  0  0  0  0  0
    3.4433    0.4530   -1.9445 C   0  0  0  0  0  0  0  0  0  0  0  0
    3.2655    0.2901   -0.5555 C   0  0  0  0  0  0  0  0  0  0  0  0
   -0.2061    0.9897    0.0189 C   0  0  0  0  0  0  0  0  0  0  0  0
   -2.8202    0.0440    0.4819 N   0  0  0  0  0  0  0  0  0  0  0  0
   -5.5530   -2.1973    1.6004 C   0  0  0  0  0  0  0  0  0  0  0  0
   -5.7297   -3.4050    2.2754 C   0  0  0  0  0  0  0  0  0  0  0  0
   -4.7601   -5.0606    3.2777 H   0  0  0  0  0  0  0  0  0  0  0  0
   -2.4625   -4.1603    2.9125 H   0  0  0  0  0  0  0  0  0  0  0  0
   -2.1515   -1.9993    1.7044 H   0  0  0  0  0  0  0  0  0  0  0  0
   -4.9472    3.7631   -1.7342 H   0  0  0  0  0  0  0  0  0  0  0  0
   -6.9257    5.0477   -2.5540 H   0  0  0  0  0  0  0  0  0  0  0  0
   -9.2268    4.1719   -2.1555 H   0  0  0  0  0  0  0  0  0  0  0  0
   -9.5419    2.0168   -0.9400 H   0  0  0  0  0  0  0  0  0  0  0  0
   -7.5517    0.7453   -0.1271 H   0  0  0  0  0  0  0  0  0  0  0  0
   -1.9996    3.5371   -1.3603 H   0  0  0  0  0  0  0  0  0  0  0  0
    0.3127    4.4188   -1.7324 H   0  0  0  0  0  0  0  0  0  0  0  0
    2.2841    3.1100   -0.9482 H   0  0  0  0  0  0  0  0  0  0  0  0
    0.7576    1.0769    2.6982 H   0  0  0  0  0  0  0  0  0  0  0  0
    1.6006    0.1403    4.8404 H   0  0  0  0  0  0  0  0  0  0  0  0
    3.7281   -1.1379    4.9315 H   0  0  0  0  0  0  0  0  0  0  0  0
    5.0796   -1.4945    2.8555 H   0  0  0  0  0  0  0  0  0  0  0  0
    8.6671   -3.0798    0.3637 H   0  0  0  0  0  0  0  0  0  0  0  0
   10.0809   -3.4955   -1.6738 H   0  0  0  0  0  0  0  0  0  0  0  0
    9.3820   -2.6318   -3.8911 H   0  0  0  0  0  0  0  0  0  0  0  0
    7.2702   -1.3363   -4.1504 H   0  0  0  0  0  0  0  0  0  0  0  0
    4.7257    0.0267   -3.6225 H   0  0  0  0  0  0  0  0  0  0  0  0
    2.7043    0.9887   -2.5412 H   0  0  0  0  0  0  0  0  0  0  0  0
   -0.3610    0.0214    0.4933 H   0  0  0  0  0  0  0  0  0  0  0  0
   -6.4088   -1.6350    1.2264 H   0  0  0  0  0  0  0  0  0  0  0  0
   -6.7377   -3.7965    2.4337 H   0  0  0  0  0  0  0  0  0  0  0  0
  1  2  2  0
  1 44  1  0
  1 45  1  0
  2  3  1  0
  2 46  1  0
  3  4  2  0
  3 47  1  0
  4  5  1  0
  4 43  1  0
  5  6  2  0
  5 42  1  0
  6  7  1  0
  7  8  1  0
  7 14  2  0
  8  9  2  0
  8 13  1  0
  9 10  1  0
  9 48  1  0
 10 11  2  0
 10 49  1  0
 11 12  1  0
 11 50  1  0
 12 13  2  0
 12 51  1  0
 13 52  1  0
 14 15  1  0
 15 16  1  0
 15 42  2  0
 16 17  2  0
 16 41  1  0
 17 18  1  0
 17 53  1  0
 18 19  2  0
 18 54  1  0
 19 20  1  0
 19 55  1  0
 20 21  1  0
 20 41  2  0
 21 22  1  0
 21 40  1  0
 22 23  2  0
 22 27  1  0
 23 24  1  0
 23 56  1  0
 24 25  2  0
 24 57  1  0
 25 26  1  0
 25 58  1  0
 26 27  2  0
 26 59  1  0
 27 28  1  0
 28 29  1  0
 28 40  2  0
 29 30  1  0
 29 37  2  0
 30 31  1  0
 31 32  2  0
 31 36  1  0
 32 33  1  0
 32 60  1  0
 33 34  2  0
 33 61  1  0
 34 35  1  0
 34 62  1  0
 35 36  2  0
 35 63  1  0
 36 37  1  0
 37 38  1  0
 38 39  2  0
 38 64  1  0
 39 40  1  0
 39 65  1  0
 41 66  1  0
 43 44  2  0
 43 67  1  0
 44 68  1  0
M  END

