
     RDKit          3D

 47 48  0  0  0  0  0  0  0  0999 V2000
    4.4180   -0.3844   -9.8002 C   0  0  0  0  0  0  0  0  0  0  0  0
    4.6759   -0.7591   -8.5374 C   0  0  0  0  0  0  0  0  0  0  0  0
    4.5448   -2.1707   -8.0312 C   0  0  0  0  0  0  0  0  0  0  0  0
    5.1204    0.3159   -7.5923 C   0  0  0  0  0  0  0  0  0  0  0  0
    5.2651    1.4837   -7.8661 O   0  0  0  0  0  0  0  0  0  0  0  0
    5.3462   -0.1775   -6.3455 O   0  0  0  0  0  0  0  0  0  0  0  0
    5.7632    0.7531   -5.3389 C   0  0  0  0  0  0  0  0  0  0  0  0
    7.2762    0.9316   -5.3390 C   0  0  0  0  0  0  0  0  0  0  0  0
    7.9357   -0.3436   -5.1332 N   0  0  0  0  0  0  0  0  0  0  0  0
    9.2987   -0.5751   -5.0672 C   0  0  0  0  0  0  0  0  0  0  0  0
    9.7596   -1.6939   -5.2114 O   0  0  0  0  0  0  0  0  0  0  0  0
   10.0561    0.5600   -4.8075 N   0  0  0  0  0  0  0  0  0  0  0  0
   11.4492    0.6510   -4.6423 C   0  0  0  0  0  0  0  0  0  0  0  0
   12.2538   -0.4649   -4.4549 C   0  0  0  0  0  0  0  0  0  0  0  0
   13.6424   -0.3133   -4.2590 C   0  0  0  0  0  0  0  0  0  0  0  0
   14.2320    0.9320   -4.2166 C   0  0  0  0  0  0  0  0  0  0  0  0
   13.4447    2.1009   -4.3986 C   0  0  0  0  0  0  0  0  0  0  0  0
   14.0206    3.4194   -4.3469 C   0  0  0  0  0  0  0  0  0  0  0  0
   15.3838    3.5461   -4.0078 N   0  0  0  0  0  0  0  0  0  0  0  0
   16.4007    4.3036   -4.5687 C   0  0  0  0  0  0  0  0  0  0  0  0
   16.1002    5.1024   -5.8232 C   0  0  0  0  0  0  0  0  0  0  0  0
   17.5063    4.2943   -4.0611 O   0  0  0  0  0  0  0  0  0  0  0  0
   13.2337    4.5333   -4.5912 C   0  0  0  0  0  0  0  0  0  0  0  0
   11.8705    4.3884   -4.9253 C   0  0  0  0  0  0  0  0  0  0  0  0
   11.2834    3.1412   -4.9510 C   0  0  0  0  0  0  0  0  0  0  0  0
   12.0365    1.9686   -4.6597 C   0  0  0  0  0  0  0  0  0  0  0  0
    4.0871   -1.1072  -10.5504 H   0  0  0  0  0  0  0  0  0  0  0  0
    4.5351    0.6590  -10.1014 H   0  0  0  0  0  0  0  0  0  0  0  0
    4.1917   -2.8398   -8.8286 H   0  0  0  0  0  0  0  0  0  0  0  0
    3.8400   -2.2275   -7.1865 H   0  0  0  0  0  0  0  0  0  0  0  0
    5.5093   -2.5534   -7.6597 H   0  0  0  0  0  0  0  0  0  0  0  0
    5.4286    0.3184   -4.3861 H   0  0  0  0  0  0  0  0  0  0  0  0
    5.2745    1.7231   -5.5045 H   0  0  0  0  0  0  0  0  0  0  0  0
    7.5092    1.6295   -4.5132 H   0  0  0  0  0  0  0  0  0  0  0  0
    7.5809    1.4227   -6.2829 H   0  0  0  0  0  0  0  0  0  0  0  0
    7.4411   -1.1599   -5.4800 H   0  0  0  0  0  0  0  0  0  0  0  0
    9.5474    1.4172   -4.6449 H   0  0  0  0  0  0  0  0  0  0  0  0
   11.7979   -1.4516   -4.4710 H   0  0  0  0  0  0  0  0  0  0  0  0
   14.2553   -1.2093   -4.1323 H   0  0  0  0  0  0  0  0  0  0  0  0
   15.3093    1.0190   -4.0718 H   0  0  0  0  0  0  0  0  0  0  0  0
   15.7259    2.9709   -3.2421 H   0  0  0  0  0  0  0  0  0  0  0  0
   15.3349    4.6400   -6.4616 H   0  0  0  0  0  0  0  0  0  0  0  0
   17.0439    5.2088   -6.3737 H   0  0  0  0  0  0  0  0  0  0  0  0
   15.7565    6.1142   -5.5542 H   0  0  0  0  0  0  0  0  0  0  0  0
   13.6670    5.5302   -4.5072 H   0  0  0  0  0  0  0  0  0  0  0  0
   11.2759    5.2772   -5.1494 H   0  0  0  0  0  0  0  0  0  0  0  0
   10.2312    3.0703   -5.2325 H   0  0  0  0  0  0  0  0  0  0  0  0
  1  2  2  0
  1 27  1  0
  1 28  1  0
  2  3  1  0
  2  4  1  0
  3 29  1  0
  3 30  1  0
  3 31  1  0
  4  5  2  0
  4  6  1  0
  6  7  1  0
  7  8  1  0
  7 32  1  0
  7 33  1  0
  8  9  1  0
  8 34  1  0
  8 35  1  0
  9 10  1  0
  9 36  1  0
 10 11  2  0
 10 12  1  0
 12 13  1  0
 12 37  1  0
 13 14  2  0
 13 26  1  0
 14 15  1  0
 14 38  1  0
 15 16  2  0
 15 39  1  0
 16 17  1  0
 16 40  1  0
 17 18  1  0
 17 26  2  0
 18 19  1  0
 18 23  2  0
 19 20  1  0
 19 41  1  0
 20 21  1  0
 20 22  2  0
 21 42  1  0
 21 43  1  0
 21 44  1  0
 23 24  1  0
 23 45  1  0
 24 25  2  0
 24 46  1  0
 25 26  1  0
 25 47  1  0
M  END

