
     RDKit          3D

139156  0  0  0  0  0  0  0  0999 V2000
   -0.1226    6.4209    5.7585 C   0  0  0  0  0  0  0  0  0  0  0  0
    1.0985    5.8079    5.4570 C   0  0  0  0  0  0  0  0  0  0  0  0
    1.1208    4.5526    4.8493 C   0  0  0  0  0  0  0  0  0  0  0  0
   -0.0809    3.8934    4.5351 C   0  0  0  0  0  0  0  0  0  0  0  0
   -0.0588    2.5560    3.8883 C   0  0  0  0  0  0  0  0  0  0  0  0
    1.1309    2.0039    3.6161 N   0  0  0  0  0  0  0  0  0  0  0  0
    1.1077    0.7970    3.0360 C   0  0  0  0  0  0  0  0  0  0  0  0
    2.4041    0.1487    2.7179 C   0  0  0  0  0  0  0  0  0  0  0  0
    3.6188    0.7829    3.0322 C   0  0  0  0  0  0  0  0  0  0  0  0
    4.8365    0.1744    2.7411 C   0  0  0  0  0  0  0  0  0  0  0  0
    4.8687   -1.0827    2.1135 C   0  0  0  0  0  0  0  0  0  0  0  0
    6.1052   -1.7000    1.8098 N   0  0  0  0  0  0  0  0  0  0  0  0
    6.4860   -2.9996    2.1717 C   0  0  0  0  0  0  0  0  0  0  0  0
    5.7924   -3.9588    2.9206 C   0  0  0  0  0  0  0  0  0  0  0  0
    6.4241   -5.1798    3.1627 C   0  0  0  0  0  0  0  0  0  0  0  0
    7.7186   -5.4454    2.6791 C   0  0  0  0  0  0  0  0  0  0  0  0
    8.4121   -4.4821    1.9477 C   0  0  0  0  0  0  0  0  0  0  0  0
    7.8002   -3.2471    1.6911 C   0  0  0  0  0  0  0  0  0  0  0  0
    8.2290   -2.0442    1.0025 C   0  0  0  0  0  0  0  0  0  0  0  0
    9.4008   -1.6943    0.3214 C   0  0  0  0  0  0  0  0  0  0  0  0
    9.5225   -0.4293   -0.2740 C   0  0  0  0  0  0  0  0  0  0  0  0
   10.7603   -0.0413   -1.0030 C   0  0  0  0  0  0  0  0  0  0  0  0
   11.2664    1.2799   -0.9143 C   0  0  0  0  0  0  0  0  0  0  0  0
   12.4209    1.6859   -1.5802 C   0  0  0  0  0  0  0  0  0  0  0  0
   13.0945    0.7432   -2.3661 C   0  0  0  0  0  0  0  0  0  0  0  0
   12.6221   -0.5923   -2.4661 C   0  0  0  0  0  0  0  0  0  0  0  0
   11.4580   -0.9724   -1.7876 C   0  0  0  0  0  0  0  0  0  0  0  0
   13.5527   -1.2999   -3.3249 C   0  0  0  0  0  0  0  0  0  0  0  0
   13.6182   -2.6155   -3.8059 C   0  0  0  0  0  0  0  0  0  0  0  0
   14.6649   -2.9787   -4.6523 C   0  0  0  0  0  0  0  0  0  0  0  0
   15.6417   -2.0367   -5.0266 C   0  0  0  0  0  0  0  0  0  0  0  0
   15.6006   -0.7214   -4.5620 C   0  0  0  0  0  0  0  0  0  0  0  0
   14.5539   -0.3636   -3.7026 C   0  0  0  0  0  0  0  0  0  0  0  0
   14.2666    0.8733   -3.1159 N   0  0  0  0  0  0  0  0  0  0  0  0
   15.0321    2.0611   -3.2616 C   0  0  0  0  0  0  0  0  0  0  0  0
   16.3863    2.0781   -2.8936 C   0  0  0  0  0  0  0  0  0  0  0  0
   17.1379    3.2456   -3.0465 C   0  0  0  0  0  0  0  0  0  0  0  0
   16.5435    4.4075   -3.5484 C   0  0  0  0  0  0  0  0  0  0  0  0
   15.1919    4.3939   -3.9066 C   0  0  0  0  0  0  0  0  0  0  0  0
   14.4386    3.2252   -3.7738 C   0  0  0  0  0  0  0  0  0  0  0  0
    8.4316    0.4697   -0.1722 C   0  0  0  0  0  0  0  0  0  0  0  0
    7.2552    0.1480    0.5021 C   0  0  0  0  0  0  0  0  0  0  0  0
    7.1622   -1.1137    1.1015 C   0  0  0  0  0  0  0  0  0  0  0  0
    3.6576   -1.7185    1.7904 C   0  0  0  0  0  0  0  0  0  0  0  0
    2.4427   -1.1115    2.0961 C   0  0  0  0  0  0  0  0  0  0  0  0
   -0.0190    0.1417    2.7274 N   0  0  0  0  0  0  0  0  0  0  0  0
   -1.1667    0.7630    3.0287 C   0  0  0  0  0  0  0  0  0  0  0  0
   -2.4410    0.0764    2.7018 C   0  0  0  0  0  0  0  0  0  0  0  0
   -2.4377   -1.1838    2.0788 C   0  0  0  0  0  0  0  0  0  0  0  0
   -3.6320   -1.8267    1.7649 C   0  0  0  0  0  0  0  0  0  0  0  0
   -4.8636   -1.2279    2.0807 C   0  0  0  0  0  0  0  0  0  0  0  0
   -6.0791   -1.8816    1.7684 N   0  0  0  0  0  0  0  0  0  0  0  0
   -6.4227   -3.1926    2.1258 C   0  0  0  0  0  0  0  0  0  0  0  0
   -5.7056   -4.1315    2.8783 C   0  0  0  0  0  0  0  0  0  0  0  0
   -6.3015   -5.3716    3.1142 C   0  0  0  0  0  0  0  0  0  0  0  0
   -7.5837   -5.6758    2.6208 C   0  0  0  0  0  0  0  0  0  0  0  0
   -8.3011   -4.7328    1.8858 C   0  0  0  0  0  0  0  0  0  0  0  0
   -7.7254   -3.4792    1.6354 C   0  0  0  0  0  0  0  0  0  0  0  0
   -8.1857   -2.2887    0.9457 C   0  0  0  0  0  0  0  0  0  0  0  0
   -9.3624   -1.9738    0.2560 C   0  0  0  0  0  0  0  0  0  0  0  0
   -9.5185   -0.7120   -0.3380 C   0  0  0  0  0  0  0  0  0  0  0  0
  -10.7642   -0.3576   -1.0707 C   0  0  0  0  0  0  0  0  0  0  0  0
  -11.4321   -1.3216   -1.8672 C   0  0  0  0  0  0  0  0  0  0  0  0
  -12.6037   -1.0351   -2.5644 C   0  0  0  0  0  0  0  0  0  0  0  0
  -13.1315    0.2577   -2.4635 C   0  0  0  0  0  0  0  0  0  0  0  0
  -12.4793    1.2517   -1.6871 C   0  0  0  0  0  0  0  0  0  0  0  0
  -11.3039    0.9356   -0.9951 C   0  0  0  0  0  0  0  0  0  0  0  0
  -13.2640    2.4646   -1.8191 C   0  0  0  0  0  0  0  0  0  0  0  0
  -13.1462    3.7571   -1.2881 C   0  0  0  0  0  0  0  0  0  0  0  0
  -14.1081    4.7142   -1.6086 C   0  0  0  0  0  0  0  0  0  0  0  0
  -15.1891    4.3881   -2.4491 C   0  0  0  0  0  0  0  0  0  0  0  0
  -15.3300    3.1099   -2.9914 C   0  0  0  0  0  0  0  0  0  0  0  0
  -14.3551    2.1546   -2.6764 C   0  0  0  0  0  0  0  0  0  0  0  0
  -14.2657    0.8130   -3.0619 N   0  0  0  0  0  0  0  0  0  0  0  0
  -15.1759    0.1290   -3.9117 C   0  0  0  0  0  0  0  0  0  0  0  0
  -15.8375   -1.0220   -3.4568 C   0  0  0  0  0  0  0  0  0  0  0  0
  -16.7246   -1.6973   -4.2984 C   0  0  0  0  0  0  0  0  0  0  0  0
  -16.9729   -1.2223   -5.5899 C   0  0  0  0  0  0  0  0  0  0  0  0
  -16.3208   -0.0704   -6.0407 C   0  0  0  0  0  0  0  0  0  0  0  0
  -15.4184    0.5998   -5.2114 C   0  0  0  0  0  0  0  0  0  0  0  0
   -8.4553    0.2188   -0.2289 C   0  0  0  0  0  0  0  0  0  0  0  0
   -7.2749   -0.0678    0.4539 C   0  0  0  0  0  0  0  0  0  0  0  0
   -7.1484   -1.3265    1.0536 C   0  0  0  0  0  0  0  0  0  0  0  0
   -4.8732    0.0290    2.7095 C   0  0  0  0  0  0  0  0  0  0  0  0
   -3.6761    0.6735    3.0089 C   0  0  0  0  0  0  0  0  0  0  0  0
   -1.2297    1.9685    3.6086 N   0  0  0  0  0  0  0  0  0  0  0  0
   -1.3038    4.5164    4.8413 C   0  0  0  0  0  0  0  0  0  0  0  0
   -1.3229    5.7718    5.4491 C   0  0  0  0  0  0  0  0  0  0  0  0
   -0.1388    7.4047    6.2348 H   0  0  0  0  0  0  0  0  0  0  0  0
    2.0379    6.3120    5.6973 H   0  0  0  0  0  0  0  0  0  0  0  0
    2.0655    4.0643    4.6092 H   0  0  0  0  0  0  0  0  0  0  0  0
    3.5915    1.7558    3.5232 H   0  0  0  0  0  0  0  0  0  0  0  0
    5.7737    0.6628    3.0135 H   0  0  0  0  0  0  0  0  0  0  0  0
    4.7933   -3.7621    3.3117 H   0  0  0  0  0  0  0  0  0  0  0  0
    5.9000   -5.9426    3.7440 H   0  0  0  0  0  0  0  0  0  0  0  0
    8.1840   -6.4121    2.8852 H   0  0  0  0  0  0  0  0  0  0  0  0
    9.4225   -4.6838    1.5832 H   0  0  0  0  0  0  0  0  0  0  0  0
   10.2313   -2.4021    0.2717 H   0  0  0  0  0  0  0  0  0  0  0  0
   10.7489    2.0021   -0.2789 H   0  0  0  0  0  0  0  0  0  0  0  0
   12.7910    2.7070   -1.4759 H   0  0  0  0  0  0  0  0  0  0  0  0
   11.0798   -1.9922   -1.8884 H   0  0  0  0  0  0  0  0  0  0  0  0
   12.8551   -3.3453   -3.5236 H   0  0  0  0  0  0  0  0  0  0  0  0
   14.7272   -4.0008   -5.0333 H   0  0  0  0  0  0  0  0  0  0  0  0
   16.4498   -2.3384   -5.6980 H   0  0  0  0  0  0  0  0  0  0  0  0
   16.3583    0.0030   -4.8647 H   0  0  0  0  0  0  0  0  0  0  0  0
   16.8407    1.1755   -2.4802 H   0  0  0  0  0  0  0  0  0  0  0  0
   18.1923    3.2494   -2.7588 H   0  0  0  0  0  0  0  0  0  0  0  0
   17.1321    5.3212   -3.6601 H   0  0  0  0  0  0  0  0  0  0  0  0
   14.7213    5.2963   -4.3050 H   0  0  0  0  0  0  0  0  0  0  0  0
   13.3891    3.2040   -4.0742 H   0  0  0  0  0  0  0  0  0  0  0  0
    8.5015    1.4426   -0.6635 H   0  0  0  0  0  0  0  0  0  0  0  0
    6.4298    0.8601    0.5407 H   0  0  0  0  0  0  0  0  0  0  0  0
    3.6766   -2.6845    1.2829 H   0  0  0  0  0  0  0  0  0  0  0  0
    1.5023   -1.6010    1.8422 H   0  0  0  0  0  0  0  0  0  0  0  0
   -1.4815   -1.6446    1.8305 H   0  0  0  0  0  0  0  0  0  0  0  0
   -3.6187   -2.7923    1.2564 H   0  0  0  0  0  0  0  0  0  0  0  0
   -4.7159   -3.9051    3.2769 H   0  0  0  0  0  0  0  0  0  0  0  0
   -5.7585   -6.1190    3.6982 H   0  0  0  0  0  0  0  0  0  0  0  0
   -8.0208   -6.6566    2.8221 H   0  0  0  0  0  0  0  0  0  0  0  0
   -9.3022   -4.9646    1.5136 H   0  0  0  0  0  0  0  0  0  0  0  0
  -10.1697   -2.7074    0.1984 H   0  0  0  0  0  0  0  0  0  0  0  0
  -10.9987   -2.3197   -1.9620 H   0  0  0  0  0  0  0  0  0  0  0  0
  -13.0819   -1.7973   -3.1816 H   0  0  0  0  0  0  0  0  0  0  0  0
  -10.8184    1.6939   -0.3764 H   0  0  0  0  0  0  0  0  0  0  0  0
  -12.3124    4.0090   -0.6279 H   0  0  0  0  0  0  0  0  0  0  0  0
  -14.0270    5.7249   -1.2017 H   0  0  0  0  0  0  0  0  0  0  0  0
  -15.9378    5.1498   -2.6819 H   0  0  0  0  0  0  0  0  0  0  0  0
  -16.1760    2.8653   -3.6356 H   0  0  0  0  0  0  0  0  0  0  0  0
  -15.6586   -1.3763   -2.4397 H   0  0  0  0  0  0  0  0  0  0  0  0
  -17.2345   -2.5937   -3.9365 H   0  0  0  0  0  0  0  0  0  0  0  0
  -17.6727   -1.7485   -6.2435 H   0  0  0  0  0  0  0  0  0  0  0  0
  -16.5048    0.3039   -7.0509 H   0  0  0  0  0  0  0  0  0  0  0  0
  -14.8896    1.4859   -5.5679 H   0  0  0  0  0  0  0  0  0  0  0  0
   -8.5503    1.1888   -0.7219 H   0  0  0  0  0  0  0  0  0  0  0  0
   -6.4712    0.6684    0.4980 H   0  0  0  0  0  0  0  0  0  0  0  0
   -5.8263    0.4888    2.9764 H   0  0  0  0  0  0  0  0  0  0  0  0
   -3.6812    1.6464    3.5008 H   0  0  0  0  0  0  0  0  0  0  0  0
   -2.2320    4.0003    4.5951 H   0  0  0  0  0  0  0  0  0  0  0  0
   -2.2785    6.2477    5.6832 H   0  0  0  0  0  0  0  0  0  0  0  0
  1  2  2  0
  1 88  1  0
  1 89  1  0
  2  3  1  0
  2 90  1  0
  3  4  2  0
  3 91  1  0
  4  5  1  0
  4 87  1  0
  5  6  2  0
  5 86  1  0
  6  7  1  0
  7  8  1  0
  7 46  2  0
  8  9  2  0
  8 45  1  0
  9 10  1  0
  9 92  1  0
 10 11  2  0
 10 93  1  0
 11 12  1  0
 11 44  1  0
 12 13  1  0
 12 43  1  0
 13 14  2  0
 13 18  1  0
 14 15  1  0
 14 94  1  0
 15 16  2  0
 15 95  1  0
 16 17  1  0
 16 96  1  0
 17 18  2  0
 17 97  1  0
 18 19  1  0
 19 20  1  0
 19 43  2  0
 20 21  2  0
 20 98  1  0
 21 22  1  0
 21 41  1  0
 22 23  2  0
 22 27  1  0
 23 24  1  0
 23 99  1  0
 24 25  2  0
 24100  1  0
 25 26  1  0
 25 34  1  0
 26 27  2  0
 26 28  1  0
 27101  1  0
 28 29  2  0
 28 33  1  0
 29 30  1  0
 29102  1  0
 30 31  2  0
 30103  1  0
 31 32  1  0
 31104  1  0
 32 33  2  0
 32105  1  0
 33 34  1  0
 34 35  1  0
 35 36  2  0
 35 40  1  0
 36 37  1  0
 36106  1  0
 37 38  2  0
 37107  1  0
 38 39  1  0
 38108  1  0
 39 40  2  0
 39109  1  0
 40110  1  0
 41 42  2  0
 41111  1  0
 42 43  1  0
 42112  1  0
 44 45  2  0
 44113  1  0
 45114  1  0
 46 47  1  0
 47 48  1  0
 47 86  2  0
 48 49  2  0
 48 85  1  0
 49 50  1  0
 49115  1  0
 50 51  2  0
 50116  1  0
 51 52  1  0
 51 84  1  0
 52 53  1  0
 52 83  1  0
 53 54  2  0
 53 58  1  0
 54 55  1  0
 54117  1  0
 55 56  2  0
 55118  1  0
 56 57  1  0
 56119  1  0
 57 58  2  0
 57120  1  0
 58 59  1  0
 59 60  1  0
 59 83  2  0
 60 61  2  0
 60121  1  0
 61 62  1  0
 61 81  1  0
 62 63  2  0
 62 67  1  0
 63 64  1  0
 63122  1  0
 64 65  2  0
 64123  1  0
 65 66  1  0
 65 74  1  0
 66 67  2  0
 66 68  1  0
 67124  1  0
 68 69  2  0
 68 73  1  0
 69 70  1  0
 69125  1  0
 70 71  2  0
 70126  1  0
 71 72  1  0
 71127  1  0
 72 73  2  0
 72128  1  0
 73 74  1  0
 74 75  1  0
 75 76  2  0
 75 80  1  0
 76 77  1  0
 76129  1  0
 77 78  2  0
 77130  1  0
 78 79  1  0
 78131  1  0
 79 80  2  0
 79132  1  0
 80133  1  0
 81 82  2  0
 81134  1  0
 82 83  1  0
 82135  1  0
 84 85  2  0
 84136  1  0
 85137  1  0
 87 88  2  0
 87138  1  0
 88139  1  0
M  END

