
     RDKit          3D

 35 37  0  0  0  0  0  0  0  0999 V2000
    5.1535   -4.8296    0.2676 N   0  0  0  0  0  0  0  0  0  0  0  0
    4.5677   -3.9149    1.1018 C   0  0  0  0  0  0  0  0  0  0  0  0
    3.5645   -4.1704    1.7475 O   0  0  0  0  0  0  0  0  0  0  0  0
    5.2839   -2.5999    1.1933 C   0  0  0  0  0  0  0  0  0  0  0  0
    6.6916   -2.4055    1.0056 C   0  0  0  0  0  0  0  0  0  0  0  0
    7.0923   -1.1123    1.2132 C   0  0  0  0  0  0  0  0  0  0  0  0
    5.7596   -0.0845    1.6084 S   0  0  0  0  0  0  0  0  0  0  0  0
    4.6446   -1.4242    1.5404 C   0  0  0  0  0  0  0  0  0  0  0  0
    3.2809   -1.2194    1.7727 N   0  0  0  0  0  0  0  0  0  0  0  0
    2.3116   -1.6179    0.8851 C   0  0  0  0  0  0  0  0  0  0  0  0
    2.5160   -1.9874   -0.2495 O   0  0  0  0  0  0  0  0  0  0  0  0
    0.8841   -1.6703    1.4548 C   0  0  0  0  0  0  0  0  0  0  0  0
    0.5146   -0.6132    2.3865 N   0  0  0  0  0  0  0  0  0  0  0  0
    1.1466   -0.4017    3.5340 N   0  0  0  0  0  0  0  0  0  0  0  0
    0.5562    0.6054    4.1058 N   0  0  0  0  0  0  0  0  0  0  0  0
   -0.4517    0.9869    3.2751 C   0  0  0  0  0  0  0  0  0  0  0  0
   -1.3752    2.0939    3.5530 C   0  0  0  0  0  0  0  0  0  0  0  0
   -1.2494    2.8291    4.7439 C   0  0  0  0  0  0  0  0  0  0  0  0
   -2.1254    3.8820    5.0114 C   0  0  0  0  0  0  0  0  0  0  0  0
   -3.1318    4.2108    4.0971 C   0  0  0  0  0  0  0  0  0  0  0  0
   -3.2599    3.4807    2.9103 C   0  0  0  0  0  0  0  0  0  0  0  0
   -2.3875    2.4269    2.6367 C   0  0  0  0  0  0  0  0  0  0  0  0
   -0.4868    0.2232    2.1792 N   0  0  0  0  0  0  0  0  0  0  0  0
    4.6380   -5.6893    0.1130 H   0  0  0  0  0  0  0  0  0  0  0  0
    5.7869   -4.5287   -0.4623 H   0  0  0  0  0  0  0  0  0  0  0  0
    7.3874   -3.2135    0.7747 H   0  0  0  0  0  0  0  0  0  0  0  0
    8.1035   -0.7093    1.1818 H   0  0  0  0  0  0  0  0  0  0  0  0
    2.9774   -0.9699    2.7162 H   0  0  0  0  0  0  0  0  0  0  0  0
    0.7810   -2.6461    1.9572 H   0  0  0  0  0  0  0  0  0  0  0  0
    0.1838   -1.6178    0.6158 H   0  0  0  0  0  0  0  0  0  0  0  0
   -0.4609    2.5640    5.4504 H   0  0  0  0  0  0  0  0  0  0  0  0
   -2.0222    4.4496    5.9396 H   0  0  0  0  0  0  0  0  0  0  0  0
   -3.8166    5.0358    4.3092 H   0  0  0  0  0  0  0  0  0  0  0  0
   -4.0447    3.7345    2.1934 H   0  0  0  0  0  0  0  0  0  0  0  0
   -2.4818    1.8534    1.7126 H   0  0  0  0  0  0  0  0  0  0  0  0
  1  2  1  0
  1 24  1  0
  1 25  1  0
  2  3  2  0
  2  4  1  0
  4  5  1  0
  4  8  2  0
  5  6  2  0
  5 26  1  0
  6  7  1  0
  6 27  1  0
  7  8  1  0
  8  9  1  0
  9 10  1  0
  9 28  1  0
 10 11  2  0
 10 12  1  0
 12 13  1  0
 12 29  1  0
 12 30  1  0
 13 14  1  0
 13 23  1  0
 14 15  2  0
 15 16  1  0
 16 17  1  0
 16 23  2  0
 17 18  2  0
 17 22  1  0
 18 19  1  0
 18 31  1  0
 19 20  2  0
 19 32  1  0
 20 21  1  0
 20 33  1  0
 21 22  2  0
 21 34  1  0
 22 35  1  0
M  END

