
     RDKit          3D

 35 37  0  0  0  0  0  0  0  0999 V2000
    0.8960    0.1182    0.0277 C   0  0  0  0  0  0  0  0  0  0  0  0
    2.4067    0.0551   -0.0954 C   0  0  0  0  0  0  0  0  0  0  0  0
    2.9754    0.4553    1.1377 O   0  0  0  0  0  0  0  0  0  0  0  0
    4.3835    0.4156    1.1999 C   0  0  1  0  0  0  0  0  0  0  0  0
    5.0066    1.4868    0.3326 C   0  0  0  0  0  0  0  0  0  0  0  0
    5.8863    1.2087   -0.5949 N   0  0  0  0  0  0  0  0  0  0  0  0
    6.2159    2.4548   -1.1235 O   0  0  0  0  0  0  0  0  0  0  0  0
    5.4885    3.3719   -0.4636 C   0  0  0  0  0  0  0  0  0  0  0  0
    5.6171    4.7759   -0.8101 C   0  0  0  0  0  0  0  0  0  0  0  0
    6.5109    5.1943   -1.8161 C   0  0  0  0  0  0  0  0  0  0  0  0
    6.6130    6.5416   -2.1303 C   0  0  0  0  0  0  0  0  0  0  0  0
    5.8817    7.4806   -1.5046 N   0  0  0  0  0  0  0  0  0  0  0  0
    5.0393    7.1101   -0.5607 C   0  0  0  0  0  0  0  0  0  0  0  0
    4.8377    5.7633   -0.1411 C   0  0  0  0  0  0  0  0  0  0  0  0
    3.9507    5.4643    0.8388 N   0  0  0  0  0  0  0  0  0  0  0  0
    4.7220    2.8237    0.4502 N   0  0  0  0  0  0  0  0  0  0  0  0
    4.7974    0.5838    2.6458 C   0  0  1  0  0  0  0  0  0  0  0  0
    4.8125   -0.6127    3.5582 C   0  0  0  0  0  0  0  0  0  0  0  0
    6.1108    0.0163    3.1209 C   0  0  0  0  0  0  0  0  0  0  0  0
    0.4185   -0.1955   -0.9136 H   0  0  0  0  0  0  0  0  0  0  0  0
    0.5707    1.1443    0.2590 H   0  0  0  0  0  0  0  0  0  0  0  0
    0.5451   -0.5421    0.8357 H   0  0  0  0  0  0  0  0  0  0  0  0
    2.7530    0.7097   -0.9199 H   0  0  0  0  0  0  0  0  0  0  0  0
    2.7363   -0.9742   -0.3476 H   0  0  0  0  0  0  0  0  0  0  0  0
    4.7649   -0.5539    0.8218 H   0  0  0  0  0  0  0  0  0  0  0  0
    7.1159    4.4519   -2.3393 H   0  0  0  0  0  0  0  0  0  0  0  0
    7.3018    6.8857   -2.9081 H   0  0  0  0  0  0  0  0  0  0  0  0
    4.4560    7.9004   -0.0681 H   0  0  0  0  0  0  0  0  0  0  0  0
    3.4123    6.2005    1.2730 H   0  0  0  0  0  0  0  0  0  0  0  0
    3.8217    4.4928    1.1142 H   0  0  0  0  0  0  0  0  0  0  0  0
    4.4771    1.5386    3.0746 H   0  0  0  0  0  0  0  0  0  0  0  0
    4.5390   -1.5817    3.1302 H   0  0  0  0  0  0  0  0  0  0  0  0
    4.4840   -0.4729    4.5916 H   0  0  0  0  0  0  0  0  0  0  0  0
    6.7269   -0.5238    2.3955 H   0  0  0  0  0  0  0  0  0  0  0  0
    6.6858    0.5945    3.8489 H   0  0  0  0  0  0  0  0  0  0  0  0
  1  2  1  0
  1 20  1  0
  1 21  1  0
  1 22  1  0
  2  3  1  0
  2 23  1  0
  2 24  1  0
  3  4  1  0
  4  5  1  0
  4 17  1  0
  4 25  1  6
  5  6  2  0
  5 16  1  0
  6  7  1  0
  7  8  1  0
  8  9  1  0
  8 16  2  0
  9 10  2  0
  9 14  1  0
 10 11  1  0
 10 26  1  0
 11 12  2  0
 11 27  1  0
 12 13  1  0
 13 14  2  0
 13 28  1  0
 14 15  1  0
 15 29  1  0
 15 30  1  0
 17 18  1  0
 17 19  1  0
 17 31  1  1
 18 19  1  0
 18 32  1  0
 18 33  1  0
 19 34  1  0
 19 35  1  0
M  END

