
     RDKit          3D

 92 95  0  0  0  0  0  0  0  0999 V2000
    3.1793   -1.2054    0.5851 C   0  0  0  0  0  0  0  0  0  0  0  0
    2.1006   -0.1312    0.8648 C   0  0  2  0  0  0  0  0  0  0  0  0
    0.8156   -0.8405    1.3449 C   0  0  0  0  0  0  0  0  0  0  0  0
    1.7601    0.6282   -0.4358 C   0  0  0  0  0  0  0  0  0  0  0  0
    2.8338    1.6314   -0.8340 C   0  0  0  0  0  0  0  0  0  0  0  0
    3.0237    2.7557    0.2078 C   0  0  1  0  0  0  0  0  0  0  0  0
    4.3404    3.4883   -0.1297 C   0  0  0  0  0  0  0  0  0  0  0  0
    1.8586    3.7696    0.1110 C   0  0  0  0  0  0  0  0  0  0  0  0
    3.0599    2.1621    1.6304 C   0  0  0  0  0  0  0  0  0  0  0  0
    3.5177    2.9747    2.6840 C   0  0  0  0  0  0  0  0  0  0  0  0
    3.5936    2.5432    4.0150 C   0  0  0  0  0  0  0  0  0  0  0  0
    4.0444    3.4788    5.0836 C   0  0  0  0  0  0  0  0  0  0  0  0
    3.5427    4.7852    5.1214 C   0  0  0  0  0  0  0  0  0  0  0  0
    3.9418    5.7378    6.0781 C   0  0  0  0  0  0  0  0  0  0  0  0
    3.3726    7.1084    6.0810 C   0  0  0  0  0  0  0  0  0  0  0  0
    2.0339    7.3471    5.7054 C   0  0  0  0  0  0  0  0  0  0  0  0
    1.4999    8.6318    5.7103 C   0  0  0  0  0  0  0  0  0  0  0  0
    2.2875    9.7347    6.0761 C   0  0  0  0  0  0  0  0  0  0  0  0
    1.6469   11.0922    6.0669 C   0  0  0  0  0  0  0  0  0  0  0  0
    0.4558   11.2611    6.0459 O   0  0  0  0  0  0  0  0  0  0  0  0
    2.4849   12.1565    6.0769 O   0  0  0  0  0  0  0  0  0  0  0  0
    3.6170    9.5066    6.4662 C   0  0  0  0  0  0  0  0  0  0  0  0
    4.1494    8.2185    6.4666 C   0  0  0  0  0  0  0  0  0  0  0  0
    4.8894    5.3347    7.0310 C   0  0  0  0  0  0  0  0  0  0  0  0
    5.4104    4.0405    7.0287 C   0  0  0  0  0  0  0  0  0  0  0  0
    5.0002    3.1045    6.0667 C   0  0  0  0  0  0  0  0  0  0  0  0
    5.4826    1.8402    6.0076 O   0  0  0  0  0  0  0  0  0  0  0  0
    6.5055    1.4165    6.9016 C   0  0  0  0  0  0  0  0  0  0  0  0
    6.8793   -0.0220    6.5758 C   0  0  0  0  0  0  0  0  0  0  0  0
    7.3491   -0.2671    5.1359 C   0  0  0  0  0  0  0  0  0  0  0  0
    8.5560    0.5599    4.7046 C   0  0  0  0  0  0  0  0  0  0  0  0
    9.6378    0.3561    5.5932 O   0  0  0  0  0  0  0  0  0  0  0  0
   11.2236    0.9027    5.3945 Si  0  0  1  0  0  4  0  0  0  0  0  0
   11.9151    0.2473    3.7633 C   0  0  0  0  0  0  0  0  0  0  0  0
   11.2370    2.7918    5.3555 C   0  0  0  0  0  0  0  0  0  0  0  0
   12.1614    0.2025    6.9105 C   0  0  1  0  0  0  0  0  0  0  0  0
   12.0755   -1.3377    6.8978 C   0  0  0  0  0  0  0  0  0  0  0  0
   13.6412    0.6352    6.8621 C   0  0  0  0  0  0  0  0  0  0  0  0
   11.5155    0.7334    8.2069 C   0  0  0  0  0  0  0  0  0  0  0  0
    3.1924    1.2247    4.2903 C   0  0  0  0  0  0  0  0  0  0  0  0
    2.7196    0.4130    3.2661 C   0  0  0  0  0  0  0  0  0  0  0  0
    2.6283    0.8483    1.9296 C   0  0  0  0  0  0  0  0  0  0  0  0
    2.8145   -1.9364   -0.1559 H   0  0  0  0  0  0  0  0  0  0  0  0
    3.4368   -1.7549    1.5038 H   0  0  0  0  0  0  0  0  0  0  0  0
    4.1094   -0.7621    0.1982 H   0  0  0  0  0  0  0  0  0  0  0  0
    0.4016   -1.4565    0.5297 H   0  0  0  0  0  0  0  0  0  0  0  0
    0.0456   -0.1119    1.6438 H   0  0  0  0  0  0  0  0  0  0  0  0
    0.9963   -1.5111    2.1983 H   0  0  0  0  0  0  0  0  0  0  0  0
    0.7974    1.1512   -0.3041 H   0  0  0  0  0  0  0  0  0  0  0  0
    1.5986   -0.1030   -1.2460 H   0  0  0  0  0  0  0  0  0  0  0  0
    2.5917    2.0855   -1.8098 H   0  0  0  0  0  0  0  0  0  0  0  0
    3.7946    1.1071   -0.9744 H   0  0  0  0  0  0  0  0  0  0  0  0
    4.3296    3.8093   -1.1843 H   0  0  0  0  0  0  0  0  0  0  0  0
    5.2116    2.8300    0.0153 H   0  0  0  0  0  0  0  0  0  0  0  0
    4.4924    4.3904    0.4815 H   0  0  0  0  0  0  0  0  0  0  0  0
    1.8243    4.2258   -0.8926 H   0  0  0  0  0  0  0  0  0  0  0  0
    1.9786    4.5805    0.8461 H   0  0  0  0  0  0  0  0  0  0  0  0
    0.8843    3.2956    0.3040 H   0  0  0  0  0  0  0  0  0  0  0  0
    3.8497    3.9895    2.4580 H   0  0  0  0  0  0  0  0  0  0  0  0
    2.8117    5.0693    4.3620 H   0  0  0  0  0  0  0  0  0  0  0  0
    1.3937    6.5055    5.4329 H   0  0  0  0  0  0  0  0  0  0  0  0
    0.4575    8.8080    5.4381 H   0  0  0  0  0  0  0  0  0  0  0  0
    3.3993   11.8666    5.9545 H   0  0  0  0  0  0  0  0  0  0  0  0
    4.2553   10.3316    6.7981 H   0  0  0  0  0  0  0  0  0  0  0  0
    5.1925    8.0739    6.7551 H   0  0  0  0  0  0  0  0  0  0  0  0
    5.2088    6.0276    7.8126 H   0  0  0  0  0  0  0  0  0  0  0  0
    6.1378    3.7637    7.7911 H   0  0  0  0  0  0  0  0  0  0  0  0
    6.1469    1.4871    7.9451 H   0  0  0  0  0  0  0  0  0  0  0  0
    7.3823    2.0828    6.8074 H   0  0  0  0  0  0  0  0  0  0  0  0
    6.0125   -0.6708    6.7867 H   0  0  0  0  0  0  0  0  0  0  0  0
    7.6767   -0.3169    7.2769 H   0  0  0  0  0  0  0  0  0  0  0  0
    6.5245   -0.0575    4.4348 H   0  0  0  0  0  0  0  0  0  0  0  0
    7.5988   -1.3364    5.0289 H   0  0  0  0  0  0  0  0  0  0  0  0
    8.2857    1.6338    4.6678 H   0  0  0  0  0  0  0  0  0  0  0  0
    8.8336    0.2725    3.6718 H   0  0  0  0  0  0  0  0  0  0  0  0
   11.3609    0.6605    2.9041 H   0  0  0  0  0  0  0  0  0  0  0  0
   11.8511   -0.8511    3.7063 H   0  0  0  0  0  0  0  0  0  0  0  0
   12.9724    0.5318    3.6343 H   0  0  0  0  0  0  0  0  0  0  0  0
   10.6494    3.1688    4.5018 H   0  0  0  0  0  0  0  0  0  0  0  0
   12.2609    3.1858    5.2456 H   0  0  0  0  0  0  0  0  0  0  0  0
   10.8063    3.2227    6.2736 H   0  0  0  0  0  0  0  0  0  0  0  0
   12.5638   -1.7715    6.0095 H   0  0  0  0  0  0  0  0  0  0  0  0
   11.0302   -1.6841    6.9084 H   0  0  0  0  0  0  0  0  0  0  0  0
   12.5802   -1.7597    7.7860 H   0  0  0  0  0  0  0  0  0  0  0  0
   14.1544    0.2633    5.9598 H   0  0  0  0  0  0  0  0  0  0  0  0
   14.1883    0.2342    7.7346 H   0  0  0  0  0  0  0  0  0  0  0  0
   13.7554    1.7318    6.8843 H   0  0  0  0  0  0  0  0  0  0  0  0
   10.4524    0.4535    8.2734 H   0  0  0  0  0  0  0  0  0  0  0  0
   11.5799    1.8316    8.2821 H   0  0  0  0  0  0  0  0  0  0  0  0
   12.0286    0.3155    9.0923 H   0  0  0  0  0  0  0  0  0  0  0  0
    3.2383    0.8413    5.3099 H   0  0  0  0  0  0  0  0  0  0  0  0
    2.4035   -0.6013    3.5186 H   0  0  0  0  0  0  0  0  0  0  0  0
  2  1  1  6
  1 43  1  0
  1 44  1  0
  1 45  1  0
  2  3  1  0
  2  4  1  0
  2 42  1  0
  3 46  1  0
  3 47  1  0
  3 48  1  0
  4  5  1  0
  4 49  1  0
  4 50  1  0
  5  6  1  0
  5 51  1  0
  5 52  1  0
  6  7  1  6
  6  8  1  0
  6  9  1  0
  7 53  1  0
  7 54  1  0
  7 55  1  0
  8 56  1  0
  8 57  1  0
  8 58  1  0
  9 10  1  0
  9 42  2  0
 10 11  2  0
 10 59  1  0
 11 12  1  0
 11 40  1  0
 12 13  2  0
 12 26  1  0
 13 14  1  0
 13 60  1  0
 14 15  1  0
 14 24  2  0
 15 16  2  0
 15 23  1  0
 16 17  1  0
 16 61  1  0
 17 18  2  0
 17 62  1  0
 18 19  1  0
 18 22  1  0
 19 20  2  0
 19 21  1  0
 21 63  1  0
 22 23  2  0
 22 64  1  0
 23 65  1  0
 24 25  1  0
 24 66  1  0
 25 26  2  0
 25 67  1  0
 26 27  1  0
 27 28  1  0
 28 29  1  0
 28 68  1  0
 28 69  1  0
 29 30  1  0
 29 70  1  0
 29 71  1  0
 30 31  1  0
 30 72  1  0
 30 73  1  0
 31 32  1  0
 31 74  1  0
 31 75  1  0
 33 32  1  1
 33 34  1  0
 33 35  1  0
 33 36  1  0
 34 76  1  0
 34 77  1  0
 34 78  1  0
 35 79  1  0
 35 80  1  0
 35 81  1  0
 36 37  1  1
 36 38  1  0
 36 39  1  0
 37 82  1  0
 37 83  1  0
 37 84  1  0
 38 85  1  0
 38 86  1  0
 38 87  1  0
 39 88  1  0
 39 89  1  0
 39 90  1  0
 40 41  2  0
 40 91  1  0
 41 42  1  0
 41 92  1  0
M  END

