
     RDKit          3D

 56 58  0  0  0  0  0  0  0  0999 V2000
    1.6886   -0.7741    1.1594 O   0  0  0  0  0  0  0  0  0  0  0  0
    2.1963   -0.5219    0.0736 C   0  0  0  0  0  0  0  0  0  0  0  0
    1.9082    0.6547   -0.6024 N   0  0  0  0  0  0  0  0  0  0  0  0
    1.0692    1.6673    0.0500 C   0  0  1  0  0  0  0  0  0  0  0  0
    1.2652    3.0260   -0.6447 C   0  0  0  0  0  0  0  0  0  0  0  0
    0.6237    3.0653   -2.0448 C   0  0  0  0  0  0  0  0  0  0  0  0
   -0.7807    2.6687   -2.0366 N   0  0  0  0  0  0  0  0  0  0  0  0
   -1.7300    3.7060   -1.7150 C   0  0  0  0  0  0  0  0  0  0  0  0
   -2.3214    4.3452   -2.9650 C   0  0  1  0  0  0  0  0  0  0  0  0
   -2.9925    3.4592   -3.7131 F   0  0  0  0  0  0  0  0  0  0  0  0
   -3.1810    5.3270   -2.6273 F   0  0  0  0  0  0  0  0  0  0  0  0
   -1.3710    4.8963   -3.7443 F   0  0  0  0  0  0  0  0  0  0  0  0
   -0.9855    1.3603   -1.4162 C   0  0  0  0  0  0  0  0  0  0  0  0
   -0.4215    1.2714    0.0077 C   0  0  0  0  0  0  0  0  0  0  0  0
    3.0721   -1.3935   -0.5548 N   0  0  0  0  0  0  0  0  0  0  0  0
    3.5549   -2.5524    0.1857 C   0  0  0  0  0  0  0  0  0  0  0  0
    3.2639   -3.8511   -0.5669 C   0  0  0  0  0  0  0  0  0  0  0  0
    3.8092   -3.8023   -1.9960 C   0  0  1  0  0  0  0  0  0  0  0  0
    4.9106   -3.7296   -1.9451 H   0  0  0  0  0  0  0  0  0  0  0  0
    3.5602   -5.0064   -2.6999 O   0  0  0  0  0  0  0  0  0  0  0  0
    3.2760   -2.5614   -2.7435 C   0  0  2  0  0  0  0  0  0  0  0  0
    2.1733   -2.6663   -2.7792 H   0  0  0  0  0  0  0  0  0  0  0  0
    3.7733   -2.5037   -4.2016 C   0  0  1  0  0  0  0  0  0  0  0  0
    3.2072   -1.3715   -5.0792 C   0  0  0  0  0  0  0  0  0  0  0  0
    4.0765   -1.4526   -6.3401 C   0  0  0  0  0  0  0  0  0  0  0  0
    5.4997   -1.7062   -5.7946 C   0  0  0  0  0  0  0  0  0  0  0  0
    5.3086   -2.4172   -4.4231 C   0  0  0  0  0  0  0  0  0  0  0  0
    3.5524   -1.2802   -1.9246 C   0  0  0  0  0  0  0  0  0  0  0  0
    2.6177    1.0078   -1.2323 H   0  0  0  0  0  0  0  0  0  0  0  0
    1.3748    1.7430    1.1072 H   0  0  0  0  0  0  0  0  0  0  0  0
    2.3394    3.2782   -0.7046 H   0  0  0  0  0  0  0  0  0  0  0  0
    0.8050    3.8013   -0.0089 H   0  0  0  0  0  0  0  0  0  0  0  0
    1.1684    2.3861   -2.7256 H   0  0  0  0  0  0  0  0  0  0  0  0
    0.7120    4.0689   -2.4857 H   0  0  0  0  0  0  0  0  0  0  0  0
   -1.3136    4.5321   -1.1056 H   0  0  0  0  0  0  0  0  0  0  0  0
   -2.5821    3.3002   -1.1481 H   0  0  0  0  0  0  0  0  0  0  0  0
   -0.4885    0.6032   -2.0477 H   0  0  0  0  0  0  0  0  0  0  0  0
   -2.0598    1.1206   -1.4336 H   0  0  0  0  0  0  0  0  0  0  0  0
   -0.5356    0.2582    0.4206 H   0  0  0  0  0  0  0  0  0  0  0  0
   -0.9787    1.9525    0.6758 H   0  0  0  0  0  0  0  0  0  0  0  0
    3.0712   -2.5415    1.1692 H   0  0  0  0  0  0  0  0  0  0  0  0
    4.6482   -2.4561    0.3415 H   0  0  0  0  0  0  0  0  0  0  0  0
    2.1704   -4.0114   -0.6025 H   0  0  0  0  0  0  0  0  0  0  0  0
    3.7055   -4.7096   -0.0355 H   0  0  0  0  0  0  0  0  0  0  0  0
    2.6042   -5.1558   -2.7066 H   0  0  0  0  0  0  0  0  0  0  0  0
    3.4427   -3.4518   -4.6567 H   0  0  0  0  0  0  0  0  0  0  0  0
    3.3489   -0.3872   -4.5968 H   0  0  0  0  0  0  0  0  0  0  0  0
    2.1291   -1.4824   -5.2799 H   0  0  0  0  0  0  0  0  0  0  0  0
    4.0124   -0.5560   -6.9763 H   0  0  0  0  0  0  0  0  0  0  0  0
    3.7464   -2.3083   -6.9537 H   0  0  0  0  0  0  0  0  0  0  0  0
    6.0272   -0.7483   -5.6566 H   0  0  0  0  0  0  0  0  0  0  0  0
    6.1099   -2.2987   -6.4934 H   0  0  0  0  0  0  0  0  0  0  0  0
    5.7987   -1.8382   -3.6237 H   0  0  0  0  0  0  0  0  0  0  0  0
    5.7643   -3.4185   -4.4041 H   0  0  0  0  0  0  0  0  0  0  0  0
    3.0491   -0.4419   -2.4189 H   0  0  0  0  0  0  0  0  0  0  0  0
    4.6382   -1.0606   -1.9260 H   0  0  0  0  0  0  0  0  0  0  0  0
  1  2  2  0
  2  3  1  0
  2 15  1  0
  3  4  1  0
  3 29  1  0
  4  5  1  0
  4 14  1  0
  4 30  1  1
  5  6  1  0
  5 31  1  0
  5 32  1  0
  6  7  1  0
  6 33  1  0
  6 34  1  0
  7  8  1  0
  7 13  1  0
  8  9  1  0
  8 35  1  0
  8 36  1  0
  9 10  1  6
  9 11  1  0
  9 12  1  0
 13 14  1  0
 13 37  1  0
 13 38  1  0
 14 39  1  0
 14 40  1  0
 15 16  1  0
 15 28  1  0
 16 17  1  0
 16 41  1  0
 16 42  1  0
 17 18  1  0
 17 43  1  0
 17 44  1  0
 18 19  1  1
 18 20  1  0
 18 21  1  0
 20 45  1  0
 21 22  1  6
 21 23  1  0
 21 28  1  0
 23 24  1  0
 23 27  1  0
 23 46  1  6
 24 25  1  0
 24 47  1  0
 24 48  1  0
 25 26  1  0
 25 49  1  0
 25 50  1  0
 26 27  1  0
 26 51  1  0
 26 52  1  0
 27 53  1  0
 27 54  1  0
 28 55  1  0
 28 56  1  0
M  END

