
     RDKit          3D

 48 51  0  0  0  0  0  0  0  0999 V2000
    1.0609    0.3344    0.4065 O   0  0  0  0  0  0  0  0  0  0  0  0
    2.0789    0.1808   -0.2368 C   0  0  0  0  0  0  0  0  0  0  0  0
    2.7459    1.3519   -0.9800 C   0  0  0  0  0  0  0  0  0  0  0  0
    2.3280    2.4863   -1.0070 O   0  0  0  0  0  0  0  0  0  0  0  0
    3.9059    0.8616   -1.5641 N   0  0  0  0  0  0  0  0  0  0  0  0
    4.8759    1.6546   -2.2264 C   0  0  0  0  0  0  0  0  0  0  0  0
    4.5363    2.9041   -2.7835 C   0  0  0  0  0  0  0  0  0  0  0  0
    5.5060    3.6769   -3.4173 C   0  0  0  0  0  0  0  0  0  0  0  0
    6.8187    3.2174   -3.5196 C   0  0  0  0  0  0  0  0  0  0  0  0
    7.7051    4.0336   -4.2217 O   0  0  0  0  0  0  0  0  0  0  0  0
    8.9751    4.2105   -3.8029 C   0  0  1  0  0  0  0  0  0  0  0  0
    9.0495    4.5000   -2.4984 F   0  0  0  0  0  0  0  0  0  0  0  0
    9.7430    3.1218   -4.0098 F   0  0  0  0  0  0  0  0  0  0  0  0
    9.4966    5.2126   -4.4973 F   0  0  0  0  0  0  0  0  0  0  0  0
    7.1742    1.9783   -2.9868 C   0  0  0  0  0  0  0  0  0  0  0  0
    6.2059    1.2122   -2.3360 C   0  0  0  0  0  0  0  0  0  0  0  0
    4.0747   -0.5908   -1.3862 C   0  0  2  0  0  0  0  0  0  0  0  0
    4.1406   -1.3287   -2.7279 C   0  0  0  0  0  0  0  0  0  0  0  0
    5.2376   -2.1451   -3.0445 C   0  0  0  0  0  0  0  0  0  0  0  0
    5.2843   -2.8442   -4.2578 C   0  0  0  0  0  0  0  0  0  0  0  0
    4.2378   -2.7217   -5.1724 C   0  0  0  0  0  0  0  0  0  0  0  0
    3.1423   -1.9029   -4.8688 C   0  0  0  0  0  0  0  0  0  0  0  0
    3.0921   -1.2157   -3.6564 C   0  0  0  0  0  0  0  0  0  0  0  0
    2.9004   -0.9978   -0.4953 C   0  0  0  0  0  0  0  0  0  0  0  0
    2.6762   -2.3038   -0.1171 C   0  0  0  0  0  0  0  0  0  0  0  0
    3.4025   -3.3089   -0.6384 O   0  0  0  0  0  0  0  0  0  0  0  0
    1.6767   -2.8050    0.8470 C   0  0  0  0  0  0  0  0  0  0  0  0
    1.1493   -4.1000    0.6584 C   0  0  0  0  0  0  0  0  0  0  0  0
    0.2262   -4.6362    1.5518 C   0  0  0  0  0  0  0  0  0  0  0  0
   -0.1564   -3.8763    2.6567 C   0  0  0  0  0  0  0  0  0  0  0  0
   -1.0376   -4.3864    3.5227 F   0  0  0  0  0  0  0  0  0  0  0  0
    0.3622   -2.6027    2.8851 C   0  0  0  0  0  0  0  0  0  0  0  0
    1.2740   -2.0692    1.9780 C   0  0  0  0  0  0  0  0  0  0  0  0
    3.5186    3.2746   -2.6932 H   0  0  0  0  0  0  0  0  0  0  0  0
    5.2501    4.6482   -3.8443 H   0  0  0  0  0  0  0  0  0  0  0  0
    8.1938    1.6047   -3.0743 H   0  0  0  0  0  0  0  0  0  0  0  0
    6.5109    0.2562   -1.9138 H   0  0  0  0  0  0  0  0  0  0  0  0
    5.0189   -0.7880   -0.8463 H   0  0  0  0  0  0  0  0  0  0  0  0
    6.0704   -2.2342   -2.3394 H   0  0  0  0  0  0  0  0  0  0  0  0
    6.1462   -3.4752   -4.4878 H   0  0  0  0  0  0  0  0  0  0  0  0
    4.2730   -3.2606   -6.1223 H   0  0  0  0  0  0  0  0  0  0  0  0
    2.3210   -1.8027   -5.5826 H   0  0  0  0  0  0  0  0  0  0  0  0
    2.2314   -0.5826   -3.4263 H   0  0  0  0  0  0  0  0  0  0  0  0
    3.8825   -3.0223   -1.4365 H   0  0  0  0  0  0  0  0  0  0  0  0
    1.4678   -4.6855   -0.2044 H   0  0  0  0  0  0  0  0  0  0  0  0
   -0.1995   -5.6310    1.4095 H   0  0  0  0  0  0  0  0  0  0  0  0
    0.0458   -2.0446    3.7680 H   0  0  0  0  0  0  0  0  0  0  0  0
    1.6765   -1.0752    2.1567 H   0  0  0  0  0  0  0  0  0  0  0  0
  1  2  2  0
  2  3  1  0
  2 24  1  0
  3  4  2  0
  3  5  1  0
  5  6  1  0
  5 17  1  0
  6  7  2  0
  6 16  1  0
  7  8  1  0
  7 34  1  0
  8  9  2  0
  8 35  1  0
  9 10  1  0
  9 15  1  0
 10 11  1  0
 11 12  1  1
 11 13  1  0
 11 14  1  0
 15 16  2  0
 15 36  1  0
 16 37  1  0
 17 18  1  0
 17 24  1  0
 17 38  1  1
 18 19  2  0
 18 23  1  0
 19 20  1  0
 19 39  1  0
 20 21  2  0
 20 40  1  0
 21 22  1  0
 21 41  1  0
 22 23  2  0
 22 42  1  0
 23 43  1  0
 24 25  2  0
 25 26  1  0
 25 27  1  0
 26 44  1  0
 27 28  2  0
 27 33  1  0
 28 29  1  0
 28 45  1  0
 29 30  2  0
 29 46  1  0
 30 31  1  0
 30 32  1  0
 32 33  2  0
 32 47  1  0
 33 48  1  0
M  END

