
     RDKit          3D

 72 82  0  0  0  0  0  0  0  0999 V2000
   -1.1463    0.4266   -7.8543 N   0  0  0  0  0  0  0  0  0  0  0  0
   -0.6453    0.3003   -6.8152 C   0  0  0  0  0  0  0  0  0  0  0  0
   -0.0561    0.1464   -5.5162 C   0  0  0  0  0  0  0  0  0  0  0  0
   -0.8652    0.2215   -4.3776 C   0  0  0  0  0  0  0  0  0  0  0  0
   -0.3428    0.0887   -3.0818 C   0  0  0  0  0  0  0  0  0  0  0  0
   -1.2260    0.1954   -1.9889 N   0  0  0  0  0  0  0  0  0  0  0  0
   -2.3997   -0.5641   -1.8285 C   0  0  0  0  0  0  0  0  0  0  0  0
   -2.8942   -1.6214   -2.6008 C   0  0  0  0  0  0  0  0  0  0  0  0
   -4.0844   -2.2274   -2.1902 C   0  0  0  0  0  0  0  0  0  0  0  0
   -4.7654   -1.7993   -1.0366 C   0  0  0  0  0  0  0  0  0  0  0  0
   -4.2645   -0.7531   -0.2624 C   0  0  0  0  0  0  0  0  0  0  0  0
   -3.0731   -0.1291   -0.6577 C   0  0  0  0  0  0  0  0  0  0  0  0
   -2.2852    0.9500   -0.1077 C   0  0  0  0  0  0  0  0  0  0  0  0
   -2.4061    1.8152    0.9801 C   0  0  0  0  0  0  0  0  0  0  0  0
   -3.4082    1.8016    1.9058 O   0  0  0  0  0  0  0  0  0  0  0  0
   -3.1358    2.8214    2.7861 C   0  0  0  0  0  0  0  0  0  0  0  0
   -3.9084    3.1585    3.8912 C   0  0  0  0  0  0  0  0  0  0  0  0
   -3.4616    4.2327    4.6674 C   0  0  0  0  0  0  0  0  0  0  0  0
   -2.2859    4.9316    4.3378 C   0  0  0  0  0  0  0  0  0  0  0  0
   -1.5235    4.5767    3.2230 C   0  0  0  0  0  0  0  0  0  0  0  0
   -1.9520    3.5028    2.4293 C   0  0  0  0  0  0  0  0  0  0  0  0
   -1.4697    2.8364    1.2301 C   0  0  0  0  0  0  0  0  0  0  0  0
   -0.3773    3.0104    0.3582 C   0  0  0  0  0  0  0  0  0  0  0  0
   -0.2184    2.1652   -0.7387 C   0  0  0  0  0  0  0  0  0  0  0  0
   -1.1583    1.1403   -0.9481 C   0  0  0  0  0  0  0  0  0  0  0  0
    1.0513   -0.1440   -2.9241 C   0  0  0  0  0  0  0  0  0  0  0  0
    1.6571   -0.3173   -1.6636 N   0  0  0  0  0  0  0  0  0  0  0  0
    2.7555    0.4254   -1.1924 C   0  0  0  0  0  0  0  0  0  0  0  0
    3.4085    1.5211   -1.7686 C   0  0  0  0  0  0  0  0  0  0  0  0
    4.4658    2.0966   -1.0592 C   0  0  0  0  0  0  0  0  0  0  0  0
    4.8625    1.6013    0.1958 C   0  0  0  0  0  0  0  0  0  0  0  0
    4.2028    0.5166    0.7730 C   0  0  0  0  0  0  0  0  0  0  0  0
    3.1409   -0.0778    0.0771 C   0  0  0  0  0  0  0  0  0  0  0  0
    2.2546   -1.1812    0.3679 C   0  0  0  0  0  0  0  0  0  0  0  0
    2.1251   -2.1062    1.4043 C   0  0  0  0  0  0  0  0  0  0  0  0
    2.8842   -2.1501    2.5371 O   0  0  0  0  0  0  0  0  0  0  0  0
    2.4217   -3.2156    3.2718 C   0  0  0  0  0  0  0  0  0  0  0  0
    2.9185   -3.6184    4.5058 C   0  0  0  0  0  0  0  0  0  0  0  0
    2.3111   -4.7315    5.0958 C   0  0  0  0  0  0  0  0  0  0  0  0
    1.2494   -5.4039    4.4635 C   0  0  0  0  0  0  0  0  0  0  0  0
    0.7646   -4.9828    3.2234 C   0  0  0  0  0  0  0  0  0  0  0  0
    1.3582   -3.8689    2.6122 C   0  0  0  0  0  0  0  0  0  0  0  0
    1.1634   -3.1339    1.3726 C   0  0  0  0  0  0  0  0  0  0  0  0
    0.3051   -3.2528    0.2621 C   0  0  0  0  0  0  0  0  0  0  0  0
    0.4000   -2.3472   -0.7932 C   0  0  0  0  0  0  0  0  0  0  0  0
    1.3557   -1.3180   -0.7212 C   0  0  0  0  0  0  0  0  0  0  0  0
    1.8613   -0.2073   -4.0684 C   0  0  0  0  0  0  0  0  0  0  0  0
    1.3384   -0.0634   -5.3577 C   0  0  0  0  0  0  0  0  0  0  0  0
    2.2142   -0.1481   -6.4908 C   0  0  0  0  0  0  0  0  0  0  0  0
    2.9436   -0.2180   -7.3909 N   0  0  0  0  0  0  0  0  0  0  0  0
   -1.9314    0.4171   -4.4939 H   0  0  0  0  0  0  0  0  0  0  0  0
   -2.3767   -1.9714   -3.4957 H   0  0  0  0  0  0  0  0  0  0  0  0
   -4.4910   -3.0515   -2.7815 H   0  0  0  0  0  0  0  0  0  0  0  0
   -5.6944   -2.2944   -0.7449 H   0  0  0  0  0  0  0  0  0  0  0  0
   -4.7819   -0.4186    0.6388 H   0  0  0  0  0  0  0  0  0  0  0  0
   -4.8178    2.6059    4.1333 H   0  0  0  0  0  0  0  0  0  0  0  0
   -4.0376    4.5331    5.5460 H   0  0  0  0  0  0  0  0  0  0  0  0
   -1.9656    5.7657    4.9666 H   0  0  0  0  0  0  0  0  0  0  0  0
   -0.6115    5.1252    2.9760 H   0  0  0  0  0  0  0  0  0  0  0  0
    0.3483    3.8076    0.5335 H   0  0  0  0  0  0  0  0  0  0  0  0
    0.6204    2.3100   -1.4179 H   0  0  0  0  0  0  0  0  0  0  0  0
    3.1110    1.9232   -2.7387 H   0  0  0  0  0  0  0  0  0  0  0  0
    4.9928    2.9500   -1.4930 H   0  0  0  0  0  0  0  0  0  0  0  0
    5.6943    2.0741    0.7229 H   0  0  0  0  0  0  0  0  0  0  0  0
    4.4986    0.1296    1.7500 H   0  0  0  0  0  0  0  0  0  0  0  0
    3.7427   -3.0856    4.9831 H   0  0  0  0  0  0  0  0  0  0  0  0
    2.6691   -5.0839    6.0662 H   0  0  0  0  0  0  0  0  0  0  0  0
    0.7977   -6.2699    4.9530 H   0  0  0  0  0  0  0  0  0  0  0  0
   -0.0610   -5.5113    2.7408 H   0  0  0  0  0  0  0  0  0  0  0  0
   -0.4359   -4.0538    0.2194 H   0  0  0  0  0  0  0  0  0  0  0  0
   -0.2564   -2.4492   -1.6561 H   0  0  0  0  0  0  0  0  0  0  0  0
    2.9267   -0.4030   -3.9445 H   0  0  0  0  0  0  0  0  0  0  0  0
  1  2  3  0
  2  3  1  0
  3  4  2  0
  3 48  1  0
  4  5  1  0
  4 51  1  0
  5  6  1  0
  5 26  2  0
  6  7  1  0
  6 25  1  0
  7  8  2  0
  7 12  1  0
  8  9  1  0
  8 52  1  0
  9 10  2  0
  9 53  1  0
 10 11  1  0
 10 54  1  0
 11 12  2  0
 11 55  1  0
 12 13  1  0
 13 14  1  0
 13 25  2  0
 14 15  1  0
 14 22  2  0
 15 16  1  0
 16 17  2  0
 16 21  1  0
 17 18  1  0
 17 56  1  0
 18 19  2  0
 18 57  1  0
 19 20  1  0
 19 58  1  0
 20 21  2  0
 20 59  1  0
 21 22  1  0
 22 23  1  0
 23 24  2  0
 23 60  1  0
 24 25  1  0
 24 61  1  0
 26 27  1  0
 26 47  1  0
 27 28  1  0
 27 46  1  0
 28 29  2  0
 28 33  1  0
 29 30  1  0
 29 62  1  0
 30 31  2  0
 30 63  1  0
 31 32  1  0
 31 64  1  0
 32 33  2  0
 32 65  1  0
 33 34  1  0
 34 35  1  0
 34 46  2  0
 35 36  1  0
 35 43  2  0
 36 37  1  0
 37 38  2  0
 37 42  1  0
 38 39  1  0
 38 66  1  0
 39 40  2  0
 39 67  1  0
 40 41  1  0
 40 68  1  0
 41 42  2  0
 41 69  1  0
 42 43  1  0
 43 44  1  0
 44 45  2  0
 44 70  1  0
 45 46  1  0
 45 71  1  0
 47 48  2  0
 47 72  1  0
 48 49  1  0
 49 50  3  0
M  END

