
     RDKit          3D

 44 46  0  0  0  0  0  0  0  0999 V2000
    0.3715   -3.6441    0.9449 C   0  0  0  0  0  0  0  0  0  0  0  0
    1.4473   -2.8798    0.2129 C   0  0  0  0  0  0  0  0  0  0  0  0
    1.2999   -2.2645   -0.8135 O   0  0  0  0  0  0  0  0  0  0  0  0
    2.6290   -2.9624    0.8610 O   0  0  0  0  0  0  0  0  0  0  0  0
    3.7317   -2.2448    0.2841 C   0  0  0  0  0  0  0  0  0  0  0  0
    4.9372   -2.3923    1.1891 C   0  0  1  0  0  0  0  0  0  0  0  0
    4.7954   -1.7342    2.5385 C   0  0  0  0  0  0  0  0  0  0  0  0
    4.1615   -2.4010    3.5999 C   0  0  0  0  0  0  0  0  0  0  0  0
    3.9946   -1.7830    4.8365 C   0  0  0  0  0  0  0  0  0  0  0  0
    4.4342   -0.4627    5.0520 C   0  0  0  0  0  0  0  0  0  0  0  0
    4.2609    0.1317    6.4033 C   0  0  0  0  0  0  0  0  0  0  0  0
    4.3542   -0.7222    7.4403 N   0  0  0  0  0  0  0  0  0  0  0  0
    4.2366   -0.3513    8.6790 C   0  0  0  0  0  0  0  0  0  0  0  0
    4.4161   -1.9056   10.1725 I   0  0  0  0  0  0  0  0  0  0  0  0
    4.0020    0.9868    9.0755 C   0  0  0  0  0  0  0  0  0  0  0  0
    3.9103    1.3348   10.4267 N   0  0  0  0  0  0  0  0  0  0  0  0
    3.6875    2.5760   10.9507 C   0  0  0  0  0  0  0  0  0  0  0  0
    3.5231    3.6094   10.3424 O   0  0  0  0  0  0  0  0  0  0  0  0
    3.6572    2.6036   12.5031 C   0  0  1  0  0  0  0  0  0  0  0  0
    3.8254    1.3771   13.0405 F   0  0  0  0  0  0  0  0  0  0  0  0
    4.6311    3.3898   12.9598 F   0  0  0  0  0  0  0  0  0  0  0  0
    2.4883    3.0814   12.9247 F   0  0  0  0  0  0  0  0  0  0  0  0
    3.8616    1.9074    8.0282 C   0  0  0  0  0  0  0  0  0  0  0  0
    3.9796    1.4843    6.7024 C   0  0  0  0  0  0  0  0  0  0  0  0
    3.6980    2.6907    5.4711 Cl  0  0  0  0  0  0  0  0  0  0  0  0
    5.0729    0.2046    3.9922 C   0  0  0  0  0  0  0  0  0  0  0  0
    5.2501   -0.4261    2.7597 C   0  0  0  0  0  0  0  0  0  0  0  0
    5.7285   -3.6762    1.0730 C   0  0  0  0  0  0  0  0  0  0  0  0
    6.2875   -2.3974    0.5061 C   0  0  0  0  0  0  0  0  0  0  0  0
   -0.5573   -3.6206    0.3628 H   0  0  0  0  0  0  0  0  0  0  0  0
    0.2034   -3.1912    1.9347 H   0  0  0  0  0  0  0  0  0  0  0  0
    0.6903   -4.6839    1.1128 H   0  0  0  0  0  0  0  0  0  0  0  0
    3.4472   -1.1874    0.1609 H   0  0  0  0  0  0  0  0  0  0  0  0
    3.9383   -2.6491   -0.7202 H   0  0  0  0  0  0  0  0  0  0  0  0
    3.7976   -3.4194    3.4480 H   0  0  0  0  0  0  0  0  0  0  0  0
    3.5204   -2.3208    5.6591 H   0  0  0  0  0  0  0  0  0  0  0  0
    4.0211    0.5635   11.0845 H   0  0  0  0  0  0  0  0  0  0  0  0
    3.6500    2.9499    8.2554 H   0  0  0  0  0  0  0  0  0  0  0  0
    5.4556    1.2153    4.1302 H   0  0  0  0  0  0  0  0  0  0  0  0
    5.7600    0.1095    1.9546 H   0  0  0  0  0  0  0  0  0  0  0  0
    5.3639   -4.4400    0.3802 H   0  0  0  0  0  0  0  0  0  0  0  0
    6.1852   -4.0747    1.9828 H   0  0  0  0  0  0  0  0  0  0  0  0
    6.3187   -2.2771   -0.5809 H   0  0  0  0  0  0  0  0  0  0  0  0
    7.1221   -1.9264    1.0318 H   0  0  0  0  0  0  0  0  0  0  0  0
  1  2  1  0
  1 30  1  0
  1 31  1  0
  1 32  1  0
  2  3  2  0
  2  4  1  0
  4  5  1  0
  6  5  1  6
  5 33  1  0
  5 34  1  0
  6  7  1  0
  6 28  1  0
  6 29  1  0
  7  8  2  0
  7 27  1  0
  8  9  1  0
  8 35  1  0
  9 10  2  0
  9 36  1  0
 10 11  1  0
 10 26  1  0
 11 12  2  0
 11 24  1  0
 12 13  1  0
 13 14  1  0
 13 15  2  0
 15 16  1  0
 15 23  1  0
 16 17  1  0
 16 37  1  0
 17 18  2  0
 17 19  1  0
 19 20  1  1
 19 21  1  0
 19 22  1  0
 23 24  2  0
 23 38  1  0
 24 25  1  0
 26 27  2  0
 26 39  1  0
 27 40  1  0
 28 29  1  0
 28 41  1  0
 28 42  1  0
 29 43  1  0
 29 44  1  0
M  END

