
     RDKit          3D

 43 45  0  0  0  0  0  0  0  0999 V2000
    8.1579   -6.2068   -1.8548 C   0  0  0  0  0  0  0  0  0  0  0  0
    9.0831   -5.3002   -1.0598 C   0  0  0  0  0  0  0  0  0  0  0  0
    8.4704   -4.8461    0.1568 O   0  0  0  0  0  0  0  0  0  0  0  0
    7.6861   -3.7457    0.0728 C   0  0  0  0  0  0  0  0  0  0  0  0
    7.4818   -3.1177   -0.9314 O   0  0  0  0  0  0  0  0  0  0  0  0
    7.1781   -3.4889    1.3436 N   0  0  0  0  0  0  0  0  0  0  0  0
    6.3342   -2.4469    1.6946 C   0  0  0  0  0  0  0  0  0  0  0  0
    5.8857   -1.6152    0.9441 O   0  0  0  0  0  0  0  0  0  0  0  0
    5.9793   -2.4482    3.1886 C   0  0  0  0  0  0  0  0  0  0  0  0
    7.3179   -1.8695    4.3008 S   0  0  0  0  0  0  0  0  0  0  0  0
    8.1751   -3.3703    4.6984 C   0  0  0  0  0  0  0  0  0  0  0  0
    7.9251   -4.4537    3.9968 N   0  0  0  0  0  0  0  0  0  0  0  0
    8.5626   -5.6141    4.2369 N   0  0  0  0  0  0  0  0  0  0  0  0
    9.4713   -5.7081    5.1866 C   0  0  0  0  0  0  0  0  0  0  0  0
   10.1286   -7.0410    5.2986 C   0  0  0  0  0  0  0  0  0  0  0  0
   11.5245   -7.1771    5.4068 C   0  0  0  0  0  0  0  0  0  0  0  0
   12.1133   -8.4433    5.4590 C   0  0  0  0  0  0  0  0  0  0  0  0
   11.3179   -9.5912    5.4061 C   0  0  0  0  0  0  0  0  0  0  0  0
    9.9298   -9.4665    5.2841 C   0  0  0  0  0  0  0  0  0  0  0  0
    9.3406   -8.2035    5.2225 C   0  0  0  0  0  0  0  0  0  0  0  0
    9.7783   -4.5946    6.0581 C   0  0  0  0  0  0  0  0  0  0  0  0
   10.6473   -4.6688    7.1777 C   0  0  0  0  0  0  0  0  0  0  0  0
   10.8752   -3.5555    7.9657 C   0  0  0  0  0  0  0  0  0  0  0  0
   10.2399   -2.3281    7.6753 C   0  0  0  0  0  0  0  0  0  0  0  0
    9.3627   -2.2346    6.6114 C   0  0  0  0  0  0  0  0  0  0  0  0
    9.1134   -3.3630    5.7918 C   0  0  0  0  0  0  0  0  0  0  0  0
    8.6854   -6.5985   -2.7396 H   0  0  0  0  0  0  0  0  0  0  0  0
    7.2740   -5.6518   -2.2023 H   0  0  0  0  0  0  0  0  0  0  0  0
    7.8251   -7.0614   -1.2451 H   0  0  0  0  0  0  0  0  0  0  0  0
    9.3838   -4.4265   -1.6574 H   0  0  0  0  0  0  0  0  0  0  0  0
    9.9847   -5.8388   -0.7329 H   0  0  0  0  0  0  0  0  0  0  0  0
    7.4762   -4.1092    2.1100 H   0  0  0  0  0  0  0  0  0  0  0  0
    5.6597   -3.4424    3.5328 H   0  0  0  0  0  0  0  0  0  0  0  0
    5.1708   -1.7192    3.3251 H   0  0  0  0  0  0  0  0  0  0  0  0
   12.1603   -6.2891    5.4164 H   0  0  0  0  0  0  0  0  0  0  0  0
   13.2003   -8.5318    5.5314 H   0  0  0  0  0  0  0  0  0  0  0  0
   11.7790  -10.5811    5.4511 H   0  0  0  0  0  0  0  0  0  0  0  0
    9.3024  -10.3600    5.2330 H   0  0  0  0  0  0  0  0  0  0  0  0
    8.2601   -8.0998    5.1094 H   0  0  0  0  0  0  0  0  0  0  0  0
   11.1240   -5.6168    7.4252 H   0  0  0  0  0  0  0  0  0  0  0  0
   11.5439   -3.6284    8.8268 H   0  0  0  0  0  0  0  0  0  0  0  0
   10.4283   -1.4555    8.3050 H   0  0  0  0  0  0  0  0  0  0  0  0
    8.8482   -1.2940    6.4064 H   0  0  0  0  0  0  0  0  0  0  0  0
  1  2  1  0
  1 27  1  0
  1 28  1  0
  1 29  1  0
  2  3  1  0
  2 30  1  0
  2 31  1  0
  3  4  1  0
  4  5  2  0
  4  6  1  0
  6  7  1  0
  6 32  1  0
  7  8  2  0
  7  9  1  0
  9 10  1  0
  9 33  1  0
  9 34  1  0
 10 11  1  0
 11 12  2  0
 11 26  1  0
 12 13  1  0
 13 14  2  0
 14 15  1  0
 14 21  1  0
 15 16  2  0
 15 20  1  0
 16 17  1  0
 16 35  1  0
 17 18  2  0
 17 36  1  0
 18 19  1  0
 18 37  1  0
 19 20  2  0
 19 38  1  0
 20 39  1  0
 21 22  1  0
 21 26  2  0
 22 23  2  0
 22 40  1  0
 23 24  1  0
 23 41  1  0
 24 25  2  0
 24 42  1  0
 25 26  1  0
 25 43  1  0
M  END

