
     RDKit          3D

 56 60  0  0  0  0  0  0  0  0999 V2000
    2.8988   -0.2594    2.1365 O   0  0  0  0  0  0  0  0  0  0  0  0
    2.6099   -0.0383    0.9739 C   0  0  0  0  0  0  0  0  0  0  0  0
    3.0011    1.3249    0.3673 C   0  0  0  0  0  0  0  0  0  0  0  0
    1.9282    2.0061   -0.3759 N   0  0  0  0  0  0  0  0  0  0  0  0
    0.7840    2.3618    0.3445 C   0  0  0  0  0  0  0  0  0  0  0  0
    0.7514    2.2862    1.6334 N   0  0  0  0  0  0  0  0  0  0  0  0
   -0.5044    2.5701    2.1313 C   0  0  0  0  0  0  0  0  0  0  0  0
   -0.8604    2.5742    3.4899 C   0  0  0  0  0  0  0  0  0  0  0  0
   -2.1658    2.9057    3.8440 C   0  0  0  0  0  0  0  0  0  0  0  0
   -3.1201    3.2346    2.8633 C   0  0  0  0  0  0  0  0  0  0  0  0
   -2.7856    3.2367    1.5082 C   0  0  0  0  0  0  0  0  0  0  0  0
   -1.4769    2.8946    1.1519 C   0  0  0  0  0  0  0  0  0  0  0  0
   -0.7588    2.8016   -0.4473 S   0  0  0  0  0  0  0  0  0  0  0  0
    2.3519    2.8373   -1.8272 S   0  0  1  0  0  0  0  0  0  0  0  0
    3.4631    2.0698   -2.3913 O   0  0  0  0  0  0  0  0  0  0  0  0
    1.1000    3.0257   -2.5556 O   0  0  0  0  0  0  0  0  0  0  0  0
    2.9716    4.4401   -1.3265 C   0  0  0  0  0  0  0  0  0  0  0  0
    4.3444    4.6001   -1.1066 C   0  0  0  0  0  0  0  0  0  0  0  0
    4.8178    5.8487   -0.6974 C   0  0  0  0  0  0  0  0  0  0  0  0
    3.9283    6.9134   -0.5179 C   0  0  0  0  0  0  0  0  0  0  0  0
    2.5603    6.7396   -0.7540 C   0  0  0  0  0  0  0  0  0  0  0  0
    2.0698    5.4985   -1.1655 C   0  0  0  0  0  0  0  0  0  0  0  0
    1.9593   -0.9529    0.1843 N   0  0  0  0  0  0  0  0  0  0  0  0
    1.4837   -2.1934    0.7931 C   0  0  0  0  0  0  0  0  0  0  0  0
    0.0640   -2.5055    0.3167 C   0  0  0  0  0  0  0  0  0  0  0  0
   -0.0065   -2.4939   -1.1390 N   0  0  0  0  0  0  0  0  0  0  0  0
   -0.6215   -3.4893   -1.8518 C   0  0  0  0  0  0  0  0  0  0  0  0
   -1.1128   -4.5412   -1.1627 N   0  0  0  0  0  0  0  0  0  0  0  0
   -1.6933   -5.5049   -1.8676 C   0  0  0  0  0  0  0  0  0  0  0  0
   -1.8111   -5.4641   -3.2597 C   0  0  0  0  0  0  0  0  0  0  0  0
   -1.2726   -4.3291   -3.8724 C   0  0  0  0  0  0  0  0  0  0  0  0
   -0.6867   -3.3505   -3.1931 N   0  0  0  0  0  0  0  0  0  0  0  0
    0.4975   -1.2814   -1.7693 C   0  0  0  0  0  0  0  0  0  0  0  0
    1.9137   -0.9758   -1.2760 C   0  0  0  0  0  0  0  0  0  0  0  0
    3.8403    1.1878   -0.3278 H   0  0  0  0  0  0  0  0  0  0  0  0
    3.3279    1.9269    1.2258 H   0  0  0  0  0  0  0  0  0  0  0  0
   -0.1072    2.3181    4.2374 H   0  0  0  0  0  0  0  0  0  0  0  0
   -2.4547    2.9111    4.8978 H   0  0  0  0  0  0  0  0  0  0  0  0
   -4.1391    3.4897    3.1643 H   0  0  0  0  0  0  0  0  0  0  0  0
   -3.5295    3.4911    0.7501 H   0  0  0  0  0  0  0  0  0  0  0  0
    5.0258    3.7644   -1.2728 H   0  0  0  0  0  0  0  0  0  0  0  0
    5.8871    5.9913   -0.5252 H   0  0  0  0  0  0  0  0  0  0  0  0
    4.3050    7.8881   -0.1983 H   0  0  0  0  0  0  0  0  0  0  0  0
    1.8700    7.5764   -0.6239 H   0  0  0  0  0  0  0  0  0  0  0  0
    1.0085    5.3498   -1.3695 H   0  0  0  0  0  0  0  0  0  0  0  0
    1.5188   -2.0743    1.8828 H   0  0  0  0  0  0  0  0  0  0  0  0
    2.1589   -3.0268    0.5198 H   0  0  0  0  0  0  0  0  0  0  0  0
   -0.6294   -1.7458    0.7271 H   0  0  0  0  0  0  0  0  0  0  0  0
   -0.2584   -3.4907    0.6718 H   0  0  0  0  0  0  0  0  0  0  0  0
   -2.0878   -6.3552   -1.2965 H   0  0  0  0  0  0  0  0  0  0  0  0
   -2.2924   -6.2607   -3.8279 H   0  0  0  0  0  0  0  0  0  0  0  0
   -1.3184   -4.2052   -4.9620 H   0  0  0  0  0  0  0  0  0  0  0  0
   -0.1633   -0.4271   -1.5254 H   0  0  0  0  0  0  0  0  0  0  0  0
    0.4872   -1.4223   -2.8559 H   0  0  0  0  0  0  0  0  0  0  0  0
    2.2597   -0.0286   -1.6977 H   0  0  0  0  0  0  0  0  0  0  0  0
    2.5969   -1.7678   -1.6398 H   0  0  0  0  0  0  0  0  0  0  0  0
  1  2  2  0
  2  3  1  0
  2 23  1  0
  3  4  1  0
  3 35  1  0
  3 36  1  0
  4  5  1  0
 14  4  1  1
  5  6  2  0
  5 13  1  0
  6  7  1  0
  7  8  2  0
  7 12  1  0
  8  9  1  0
  8 37  1  0
  9 10  2  0
  9 38  1  0
 10 11  1  0
 10 39  1  0
 11 12  2  0
 11 40  1  0
 12 13  1  0
 14 15  2  0
 14 16  2  0
 14 17  1  0
 17 18  2  0
 17 22  1  0
 18 19  1  0
 18 41  1  0
 19 20  2  0
 19 42  1  0
 20 21  1  0
 20 43  1  0
 21 22  2  0
 21 44  1  0
 22 45  1  0
 23 24  1  0
 23 34  1  0
 24 25  1  0
 24 46  1  0
 24 47  1  0
 25 26  1  0
 25 48  1  0
 25 49  1  0
 26 27  1  0
 26 33  1  0
 27 28  2  0
 27 32  1  0
 28 29  1  0
 29 30  2  0
 29 50  1  0
 30 31  1  0
 30 51  1  0
 31 32  2  0
 31 52  1  0
 33 34  1  0
 33 53  1  0
 33 54  1  0
 34 55  1  0
 34 56  1  0
M  END

