
     RDKit          3D

 66 75  0  0  0  0  0  0  0  0999 V2000
    8.8961    1.1399    0.8302 O   0  0  0  0  0  0  0  0  0  0  0  0
    7.7808    0.8368    0.4317 C   0  0  0  0  0  0  0  0  0  0  0  0
    7.2082   -0.5189    0.6021 C   0  0  0  0  0  0  0  0  0  0  0  0
    8.0545   -1.5595    1.0246 C   0  0  0  0  0  0  0  0  0  0  0  0
    7.6115   -2.8739    1.0548 C   0  0  0  0  0  0  0  0  0  0  0  0
    6.3085   -3.1598    0.6200 C   0  0  0  0  0  0  0  0  0  0  0  0
    5.4487   -2.1433    0.2159 C   0  0  0  0  0  0  0  0  0  0  0  0
    5.8686   -0.7970    0.2435 C   0  0  0  0  0  0  0  0  0  0  0  0
    5.0084    0.2629   -0.1411 N   0  0  0  0  0  0  0  0  0  0  0  0
    3.5984    0.1751   -0.0539 C   0  0  0  0  0  0  0  0  0  0  0  0
    2.9542   -0.6767    0.8676 C   0  0  0  0  0  0  0  0  0  0  0  0
    1.5690   -0.7537    0.9152 C   0  0  0  0  0  0  0  0  0  0  0  0
    0.7459    0.0136    0.0603 C   0  0  0  0  0  0  0  0  0  0  0  0
   -0.7336   -0.0970    0.1026 C   0  0  0  0  0  0  0  0  0  0  0  0
   -1.3723   -1.3179    0.4137 C   0  0  0  0  0  0  0  0  0  0  0  0
   -2.7553   -1.4425    0.4306 C   0  0  0  0  0  0  0  0  0  0  0  0
   -3.5823   -0.3411    0.1288 C   0  0  0  0  0  0  0  0  0  0  0  0
   -2.9587    0.9072   -0.0985 C   0  0  0  0  0  0  0  0  0  0  0  0
   -1.5596    1.0050   -0.1320 C   0  0  0  0  0  0  0  0  0  0  0  0
   -3.7558    2.1548   -0.1837 C   0  0  0  0  0  0  0  0  0  0  0  0
   -3.2650    3.2345   -0.4785 O   0  0  0  0  0  0  0  0  0  0  0  0
   -5.1696    1.9992    0.2230 C   0  0  0  0  0  0  0  0  0  0  0  0
   -5.9421    3.1429    0.4677 C   0  0  0  0  0  0  0  0  0  0  0  0
   -7.2683    3.0431    0.8850 C   0  0  0  0  0  0  0  0  0  0  0  0
   -7.8339    1.7794    1.0475 C   0  0  0  0  0  0  0  0  0  0  0  0
   -7.0989    0.6153    0.7846 C   0  0  0  0  0  0  0  0  0  0  0  0
   -7.7508   -0.7037    0.9411 C   0  0  0  0  0  0  0  0  0  0  0  0
   -8.8528   -0.8418    1.4521 O   0  0  0  0  0  0  0  0  0  0  0  0
   -7.0028   -1.8265    0.3293 C   0  0  0  0  0  0  0  0  0  0  0  0
   -7.6720   -3.0447    0.1151 C   0  0  0  0  0  0  0  0  0  0  0  0
   -7.0702   -4.0766   -0.5905 C   0  0  0  0  0  0  0  0  0  0  0  0
   -5.7883   -3.8751   -1.1241 C   0  0  0  0  0  0  0  0  0  0  0  0
   -5.1010   -2.6849   -0.9078 C   0  0  0  0  0  0  0  0  0  0  0  0
   -5.6783   -1.6547   -0.1363 C   0  0  0  0  0  0  0  0  0  0  0  0
   -4.9947   -0.4387    0.1192 N   0  0  0  0  0  0  0  0  0  0  0  0
   -5.7474    0.7143    0.3723 C   0  0  0  0  0  0  0  0  0  0  0  0
    1.3893    0.9035   -0.8023 C   0  0  0  0  0  0  0  0  0  0  0  0
    2.7874    1.0105   -0.8555 C   0  0  0  0  0  0  0  0  0  0  0  0
    3.3830    2.0819   -1.6893 C   0  0  0  0  0  0  0  0  0  0  0  0
    2.7310    2.7415   -2.4851 O   0  0  0  0  0  0  0  0  0  0  0  0
    4.8076    2.3527   -1.3971 C   0  0  0  0  0  0  0  0  0  0  0  0
    5.3973    3.5259   -1.8876 C   0  0  0  0  0  0  0  0  0  0  0  0
    6.7269    3.8371   -1.6081 C   0  0  0  0  0  0  0  0  0  0  0  0
    7.4817    2.9543   -0.8375 C   0  0  0  0  0  0  0  0  0  0  0  0
    6.9319    1.7587   -0.3548 C   0  0  0  0  0  0  0  0  0  0  0  0
    5.5773    1.4468   -0.6265 C   0  0  0  0  0  0  0  0  0  0  0  0
    9.0748   -1.2858    1.3010 H   0  0  0  0  0  0  0  0  0  0  0  0
    8.2750   -3.6780    1.3803 H   0  0  0  0  0  0  0  0  0  0  0  0
    5.9591   -4.1947    0.5806 H   0  0  0  0  0  0  0  0  0  0  0  0
    4.4547   -2.3998   -0.1461 H   0  0  0  0  0  0  0  0  0  0  0  0
    3.5391   -1.2595    1.5770 H   0  0  0  0  0  0  0  0  0  0  0  0
    1.1135   -1.4020    1.6672 H   0  0  0  0  0  0  0  0  0  0  0  0
   -0.7716   -2.2016    0.6397 H   0  0  0  0  0  0  0  0  0  0  0  0
   -3.1943   -2.4024    0.6963 H   0  0  0  0  0  0  0  0  0  0  0  0
   -1.1483    2.0003   -0.3099 H   0  0  0  0  0  0  0  0  0  0  0  0
   -5.4561    4.1097    0.3193 H   0  0  0  0  0  0  0  0  0  0  0  0
   -7.8557    3.9422    1.0825 H   0  0  0  0  0  0  0  0  0  0  0  0
   -8.8655    1.6486    1.3813 H   0  0  0  0  0  0  0  0  0  0  0  0
   -8.6881   -3.1263    0.5065 H   0  0  0  0  0  0  0  0  0  0  0  0
   -7.5970   -5.0187   -0.7572 H   0  0  0  0  0  0  0  0  0  0  0  0
   -5.3201   -4.6528   -1.7329 H   0  0  0  0  0  0  0  0  0  0  0  0
   -4.1217   -2.5461   -1.3624 H   0  0  0  0  0  0  0  0  0  0  0  0
    0.8281    1.5589   -1.4713 H   0  0  0  0  0  0  0  0  0  0  0  0
    4.7671    4.1816   -2.4924 H   0  0  0  0  0  0  0  0  0  0  0  0
    7.1708    4.7602   -1.9870 H   0  0  0  0  0  0  0  0  0  0  0  0
    8.5244    3.1576   -0.5839 H   0  0  0  0  0  0  0  0  0  0  0  0
  1  2  2  0
  2  3  1  0
  2 45  1  0
  3  4  2  0
  3  8  1  0
  4  5  1  0
  4 47  1  0
  5  6  2  0
  5 48  1  0
  6  7  1  0
  6 49  1  0
  7  8  2  0
  7 50  1  0
  8  9  1  0
  9 10  1  0
  9 46  1  0
 10 11  2  0
 10 38  1  0
 11 12  1  0
 11 51  1  0
 12 13  2  0
 12 52  1  0
 13 14  1  0
 13 37  1  0
 14 15  2  0
 14 19  1  0
 15 16  1  0
 15 53  1  0
 16 17  2  0
 16 54  1  0
 17 18  1  0
 17 35  1  0
 18 19  2  0
 18 20  1  0
 19 55  1  0
 20 21  2  0
 20 22  1  0
 22 23  1  0
 22 36  2  0
 23 24  2  0
 23 56  1  0
 24 25  1  0
 24 57  1  0
 25 26  2  0
 25 58  1  0
 26 27  1  0
 26 36  1  0
 27 28  2  0
 27 29  1  0
 29 30  1  0
 29 34  2  0
 30 31  2  0
 30 59  1  0
 31 32  1  0
 31 60  1  0
 32 33  2  0
 32 61  1  0
 33 34  1  0
 33 62  1  0
 34 35  1  0
 35 36  1  0
 37 38  2  0
 37 63  1  0
 38 39  1  0
 39 40  2  0
 39 41  1  0
 41 42  1  0
 41 46  2  0
 42 43  2  0
 42 64  1  0
 43 44  1  0
 43 65  1  0
 44 45  2  0
 44 66  1  0
 45 46  1  0
M  END

