
     RDKit          3D

 38 41  0  0  0  0  0  0  0  0999 V2000
    3.1321    1.6066    0.5724 O   0  0  0  0  0  0  0  0  0  0  0  0
    2.4288    1.5488   -0.4185 C   0  0  0  0  0  0  0  0  0  0  0  0
    2.9712    2.1319   -1.7324 C   0  0  0  0  0  0  0  0  0  0  0  0
    1.9738    1.9666   -3.2591 S   0  0  0  0  0  0  0  0  0  0  0  0
    2.4603    0.3372   -3.7125 C   0  0  0  0  0  0  0  0  0  0  0  0
    3.3466   -0.4443   -3.1237 N   0  0  0  0  0  0  0  0  0  0  0  0
    3.4308   -1.6185   -3.8045 N   0  0  0  0  0  0  0  0  0  0  0  0
    2.5861   -1.5468   -4.8164 C   0  0  0  0  0  0  0  0  0  0  0  0
    2.2273   -2.4355   -5.8634 C   0  0  0  0  0  0  0  0  0  0  0  0
    1.2864   -2.0132   -6.7609 C   0  0  0  0  0  0  0  0  0  0  0  0
    0.6934   -0.7000   -6.6232 C   0  0  0  0  0  0  0  0  0  0  0  0
   -0.3115   -0.2412   -7.5745 C   0  0  0  0  0  0  0  0  0  0  0  0
   -1.0282    0.9268   -7.6838 C   0  0  0  0  0  0  0  0  0  0  0  0
   -1.8627    0.7771   -8.8322 C   0  0  0  0  0  0  0  0  0  0  0  0
   -1.5943   -0.4670   -9.3367 C   0  0  0  0  0  0  0  0  0  0  0  0
   -0.6585   -1.0902   -8.5840 O   0  0  0  0  0  0  0  0  0  0  0  0
    1.0117    0.1401   -5.6600 N   0  0  0  0  0  0  0  0  0  0  0  0
    1.9362   -0.3070   -4.7992 N   0  0  0  0  0  0  0  0  0  0  0  0
    1.1671    1.0278   -0.4618 N   0  0  0  0  0  0  0  0  0  0  0  0
    0.4421    0.4392    0.5848 C   0  0  0  0  0  0  0  0  0  0  0  0
    0.9059    0.2827    1.9020 C   0  0  0  0  0  0  0  0  0  0  0  0
    0.0994   -0.3204    2.8712 C   0  0  0  0  0  0  0  0  0  0  0  0
   -1.1725   -0.7695    2.5297 C   0  0  0  0  0  0  0  0  0  0  0  0
   -1.9463   -1.3474    3.4593 F   0  0  0  0  0  0  0  0  0  0  0  0
   -1.6682   -0.6327    1.2335 C   0  0  0  0  0  0  0  0  0  0  0  0
   -0.8496   -0.0317    0.2887 C   0  0  0  0  0  0  0  0  0  0  0  0
   -1.2973    0.1157   -0.9749 F   0  0  0  0  0  0  0  0  0  0  0  0
    3.9587    1.6822   -1.9017 H   0  0  0  0  0  0  0  0  0  0  0  0
    3.1086    3.2140   -1.5879 H   0  0  0  0  0  0  0  0  0  0  0  0
    2.7051   -3.4145   -5.9209 H   0  0  0  0  0  0  0  0  0  0  0  0
    0.9647   -2.6442   -7.5886 H   0  0  0  0  0  0  0  0  0  0  0  0
   -0.9534    1.7789   -7.0131 H   0  0  0  0  0  0  0  0  0  0  0  0
   -2.5713    1.4986   -9.2331 H   0  0  0  0  0  0  0  0  0  0  0  0
   -1.9730   -1.0249  -10.1891 H   0  0  0  0  0  0  0  0  0  0  0  0
    0.6932    1.0652   -1.3614 H   0  0  0  0  0  0  0  0  0  0  0  0
    1.9035    0.6402    2.1471 H   0  0  0  0  0  0  0  0  0  0  0  0
    0.4542   -0.4457    3.8955 H   0  0  0  0  0  0  0  0  0  0  0  0
   -2.6642   -0.9848    0.9640 H   0  0  0  0  0  0  0  0  0  0  0  0
  1  2  2  0
  2  3  1  0
  2 19  1  0
  3  4  1  0
  3 28  1  0
  3 29  1  0
  4  5  1  0
  5  6  2  0
  5 18  1  0
  6  7  1  0
  7  8  2  0
  8  9  1  0
  8 18  1  0
  9 10  2  0
  9 30  1  0
 10 11  1  0
 10 31  1  0
 11 12  1  0
 11 17  2  0
 12 13  2  0
 12 16  1  0
 13 14  1  0
 13 32  1  0
 14 15  2  0
 14 33  1  0
 15 16  1  0
 15 34  1  0
 17 18  1  0
 19 20  1  0
 19 35  1  0
 20 21  2  0
 20 26  1  0
 21 22  1  0
 21 36  1  0
 22 23  2  0
 22 37  1  0
 23 24  1  0
 23 25  1  0
 25 26  2  0
 25 38  1  0
 26 27  1  0
M  END

