
     RDKit          3D

 47 52  0  0  0  0  0  0  0  0999 V2000
   -5.0389    2.9829    1.5388 C   0  0  0  0  0  0  0  0  0  0  0  0
   -3.6633    3.1680    1.4210 C   0  0  0  0  0  0  0  0  0  0  0  0
   -2.8508    2.1428    0.9192 C   0  0  0  0  0  0  0  0  0  0  0  0
   -3.4012    0.9149    0.5259 C   0  0  0  0  0  0  0  0  0  0  0  0
   -4.7972    0.7422    0.6522 C   0  0  0  0  0  0  0  0  0  0  0  0
   -5.6022    1.7604    1.1506 C   0  0  0  0  0  0  0  0  0  0  0  0
   -5.4142   -0.4308    0.2902 O   0  0  0  0  0  0  0  0  0  0  0  0
   -4.6538   -1.4650   -0.1997 C   0  0  0  0  0  0  0  0  0  0  0  0
   -5.3168   -2.6367   -0.5475 C   0  0  0  0  0  0  0  0  0  0  0  0
   -4.6033   -3.7302   -1.0551 C   0  0  0  0  0  0  0  0  0  0  0  0
   -3.2222   -3.6318   -1.2080 C   0  0  0  0  0  0  0  0  0  0  0  0
   -2.5528   -2.4519   -0.8579 C   0  0  0  0  0  0  0  0  0  0  0  0
   -3.2541   -1.3500   -0.3486 C   0  0  0  0  0  0  0  0  0  0  0  0
   -2.6247   -0.1437    0.0157 N   0  0  0  0  0  0  0  0  0  0  0  0
   -1.2101    0.0040   -0.1283 C   0  0  0  0  0  0  0  0  0  0  0  0
   -0.6693    0.5110   -1.3161 C   0  0  0  0  0  0  0  0  0  0  0  0
    0.7113    0.6579   -1.4566 C   0  0  0  0  0  0  0  0  0  0  0  0
    1.5857    0.3009   -0.4131 C   0  0  0  0  0  0  0  0  0  0  0  0
    3.0637    0.4416   -0.5236 C   0  0  0  0  0  0  0  0  0  0  0  0
    3.6855    1.1373   -1.6169 C   0  0  0  0  0  0  0  0  0  0  0  0
    4.9831    1.2692   -1.7335 N   0  0  0  0  0  0  0  0  0  0  0  0
    5.7611    0.7171   -0.7627 C   0  0  0  0  0  0  0  0  0  0  0  0
    7.1750    0.8222   -0.8344 C   0  0  0  0  0  0  0  0  0  0  0  0
    7.9579    0.2666    0.1566 C   0  0  0  0  0  0  0  0  0  0  0  0
    7.3619   -0.4118    1.2533 C   0  0  0  0  0  0  0  0  0  0  0  0
    5.9911   -0.5297    1.3485 C   0  0  0  0  0  0  0  0  0  0  0  0
    5.1578    0.0312    0.3414 C   0  0  0  0  0  0  0  0  0  0  0  0
    3.8104   -0.0875    0.4293 N   0  0  0  0  0  0  0  0  0  0  0  0
    1.0299   -0.2138    0.7739 C   0  0  0  0  0  0  0  0  0  0  0  0
   -0.3477   -0.3587    0.9165 C   0  0  0  0  0  0  0  0  0  0  0  0
   -5.6782    3.7775    1.9292 H   0  0  0  0  0  0  0  0  0  0  0  0
   -3.2047    4.1137    1.7191 H   0  0  0  0  0  0  0  0  0  0  0  0
   -1.7752    2.2976    0.8319 H   0  0  0  0  0  0  0  0  0  0  0  0
   -6.6751    1.5728    1.2266 H   0  0  0  0  0  0  0  0  0  0  0  0
   -6.3996   -2.6707   -0.4118 H   0  0  0  0  0  0  0  0  0  0  0  0
   -5.1316   -4.6467   -1.3259 H   0  0  0  0  0  0  0  0  0  0  0  0
   -2.6478   -4.4734   -1.6022 H   0  0  0  0  0  0  0  0  0  0  0  0
   -1.4716   -2.3854   -0.9813 H   0  0  0  0  0  0  0  0  0  0  0  0
   -1.3398    0.7871   -2.1326 H   0  0  0  0  0  0  0  0  0  0  0  0
    1.0977    1.0444   -2.4006 H   0  0  0  0  0  0  0  0  0  0  0  0
    3.0746    1.6004   -2.3982 H   0  0  0  0  0  0  0  0  0  0  0  0
    7.6052    1.3505   -1.6877 H   0  0  0  0  0  0  0  0  0  0  0  0
    9.0465    0.3467    0.1027 H   0  0  0  0  0  0  0  0  0  0  0  0
    8.0011   -0.8439    2.0274 H   0  0  0  0  0  0  0  0  0  0  0  0
    5.5101   -1.0474    2.1809 H   0  0  0  0  0  0  0  0  0  0  0  0
    1.7069   -0.4969    1.5806 H   0  0  0  0  0  0  0  0  0  0  0  0
   -0.7703   -0.7551    1.8423 H   0  0  0  0  0  0  0  0  0  0  0  0
  1  2  2  0
  1  6  1  0
  1 31  1  0
  2  3  1  0
  2 32  1  0
  3  4  2  0
  3 33  1  0
  4  5  1  0
  4 14  1  0
  5  6  2  0
  5  7  1  0
  6 34  1  0
  7  8  1  0
  8  9  2  0
  8 13  1  0
  9 10  1  0
  9 35  1  0
 10 11  2  0
 10 36  1  0
 11 12  1  0
 11 37  1  0
 12 13  2  0
 12 38  1  0
 13 14  1  0
 14 15  1  0
 15 16  2  0
 15 30  1  0
 16 17  1  0
 16 39  1  0
 17 18  2  0
 17 40  1  0
 18 19  1  0
 18 29  1  0
 19 20  2  0
 19 28  1  0
 20 21  1  0
 20 41  1  0
 21 22  2  0
 22 23  1  0
 22 27  1  0
 23 24  2  0
 23 42  1  0
 24 25  1  0
 24 43  1  0
 25 26  2  0
 25 44  1  0
 26 27  1  0
 26 45  1  0
 27 28  2  0
 29 30  2  0
 29 46  1  0
 30 47  1  0
M  END

