
     RDKit          3D

 50 53  0  0  0  0  0  0  0  0999 V2000
    0.0324   -0.5979   -1.4143 O   0  0  0  0  0  0  0  0  0  0  0  0
    0.5775   -0.8359   -0.3255 C   0  0  0  0  0  0  0  0  0  0  0  0
    0.4355    0.0015    0.7359 N   0  0  0  0  0  0  0  0  0  0  0  0
   -0.3384    1.2239    0.6811 C   0  0  0  0  0  0  0  0  0  0  0  0
   -0.8849    1.5493    2.0694 C   0  0  0  0  0  0  0  0  0  0  0  0
    0.2008    1.5911    3.0391 N   0  0  0  0  0  0  0  0  0  0  0  0
   -0.2356    1.7070    4.4300 C   0  0  0  0  0  0  0  0  0  0  0  0
    0.9251    1.7600    5.3971 C   0  0  0  0  0  0  0  0  0  0  0  0
    1.1701    0.7379    6.3207 C   0  0  0  0  0  0  0  0  0  0  0  0
    2.2353    0.8016    7.2259 C   0  0  0  0  0  0  0  0  0  0  0  0
    3.0826    1.9106    7.2106 C   0  0  0  0  0  0  0  0  0  0  0  0
    2.8641    2.9445    6.2957 C   0  0  0  0  0  0  0  0  0  0  0  0
    1.7946    2.8696    5.3970 C   0  0  0  0  0  0  0  0  0  0  0  0
    1.5458    3.8538    4.4814 O   0  0  0  0  0  0  0  0  0  0  0  0
    1.3962   -2.0447   -0.1397 C   0  0  0  0  0  0  0  0  0  0  0  0
    2.0363   -2.5741    1.4016 S   0  0  0  0  0  0  0  0  0  0  0  0
    2.7347   -3.9738    0.6828 C   0  0  0  0  0  0  0  0  0  0  0  0
    2.4960   -4.0570   -0.6630 C   0  0  0  0  0  0  0  0  0  0  0  0
    1.7279   -2.9476   -1.1609 C   0  0  0  0  0  0  0  0  0  0  0  0
    1.2831   -2.7567   -2.4489 N   0  0  0  0  0  0  0  0  0  0  0  0
    1.6440   -3.3653   -3.6378 C   0  0  0  0  0  0  0  0  0  0  0  0
    2.8132   -4.1143   -3.8620 C   0  0  0  0  0  0  0  0  0  0  0  0
    3.0718   -4.6692   -5.1306 C   0  0  0  0  0  0  0  0  0  0  0  0
    2.2850   -4.5451   -6.1977 N   0  0  0  0  0  0  0  0  0  0  0  0
    1.1882   -3.8200   -5.9765 C   0  0  0  0  0  0  0  0  0  0  0  0
    0.2188   -3.5391   -6.9104 N   0  0  0  0  0  0  0  0  0  0  0  0
    0.2519   -3.8584   -7.8697 H   0  0  0  0  0  0  0  0  0  0  0  0
   -0.7700   -2.7722   -6.3282 C   0  0  0  0  0  0  0  0  0  0  0  0
   -0.4617   -2.5439   -5.0063 C   0  0  0  0  0  0  0  0  0  0  0  0
    0.7895   -3.2046   -4.7587 C   0  0  0  0  0  0  0  0  0  0  0  0
    0.9444   -0.1397    1.6051 H   0  0  0  0  0  0  0  0  0  0  0  0
   -1.1508    1.0972   -0.0486 H   0  0  0  0  0  0  0  0  0  0  0  0
    0.2813    2.0683    0.3163 H   0  0  0  0  0  0  0  0  0  0  0  0
   -1.5870    0.7535    2.3740 H   0  0  0  0  0  0  0  0  0  0  0  0
   -1.4745    2.4911    2.0192 H   0  0  0  0  0  0  0  0  0  0  0  0
    0.8165    2.3779    2.8292 H   0  0  0  0  0  0  0  0  0  0  0  0
   -0.8606    0.8311    4.6693 H   0  0  0  0  0  0  0  0  0  0  0  0
   -0.8764    2.6030    4.5891 H   0  0  0  0  0  0  0  0  0  0  0  0
    0.5044   -0.1298    6.3295 H   0  0  0  0  0  0  0  0  0  0  0  0
    2.4007   -0.0111    7.9366 H   0  0  0  0  0  0  0  0  0  0  0  0
    3.9203    1.9774    7.9093 H   0  0  0  0  0  0  0  0  0  0  0  0
    3.5269    3.8158    6.2761 H   0  0  0  0  0  0  0  0  0  0  0  0
    2.1891    4.5670    4.5869 H   0  0  0  0  0  0  0  0  0  0  0  0
    3.2792   -4.6878    1.2995 H   0  0  0  0  0  0  0  0  0  0  0  0
    2.8234   -4.8969   -1.2707 H   0  0  0  0  0  0  0  0  0  0  0  0
    0.6221   -1.9719   -2.4997 H   0  0  0  0  0  0  0  0  0  0  0  0
    3.5591   -4.2407   -3.0797 H   0  0  0  0  0  0  0  0  0  0  0  0
    3.9946   -5.2449   -5.2707 H   0  0  0  0  0  0  0  0  0  0  0  0
   -1.6318   -2.4439   -6.9058 H   0  0  0  0  0  0  0  0  0  0  0  0
   -1.0633   -1.9729   -4.3019 H   0  0  0  0  0  0  0  0  0  0  0  0
  1  2  2  0
  2  3  1  0
  2 15  1  0
  3  4  1  0
  3 31  1  0
  4  5  1  0
  4 32  1  0
  4 33  1  0
  5  6  1  0
  5 34  1  0
  5 35  1  0
  6  7  1  0
  6 36  1  0
  7  8  1  0
  7 37  1  0
  7 38  1  0
  8  9  2  0
  8 13  1  0
  9 10  1  0
  9 39  1  0
 10 11  2  0
 10 40  1  0
 11 12  1  0
 11 41  1  0
 12 13  2  0
 12 42  1  0
 13 14  1  0
 14 43  1  0
 15 16  1  0
 15 19  2  0
 16 17  1  0
 17 18  2  0
 17 44  1  0
 18 19  1  0
 18 45  1  0
 19 20  1  0
 20 21  1  0
 20 46  1  0
 21 22  2  0
 21 30  1  0
 22 23  1  0
 22 47  1  0
 23 24  2  0
 23 48  1  0
 24 25  1  0
 25 26  1  0
 25 30  2  0
 26 27  1  0
 26 28  1  0
 28 29  2  0
 28 49  1  0
 29 30  1  0
 29 50  1  0
M  END

