
     RDKit          3D

 42 43  0  0  0  0  0  0  0  0999 V2000
    0.7661    0.8568    0.4801 C   0  0  0  0  0  0  0  0  0  0  0  0
    2.2685    0.5677    0.4696 C   0  0  0  0  0  0  0  0  0  0  0  0
    3.0323    1.3946   -0.5705 C   0  0  0  0  0  0  0  0  0  0  0  0
    4.5646    1.2291   -0.5482 C   0  0  1  0  0  0  0  0  0  0  0  0
    5.0591   -0.1954   -0.8735 C   0  0  0  0  0  0  0  0  0  0  0  0
    4.9022   -0.5227   -2.3626 C   0  0  0  0  0  0  0  0  0  0  0  0
    5.5458    0.5572   -3.2333 C   0  0  0  0  0  0  0  0  0  0  0  0
    5.0325    1.8856   -2.9051 N   0  0  0  0  0  0  0  0  0  0  0  0
    5.5131    2.9128   -3.8149 C   0  0  0  0  0  0  0  0  0  0  0  0
    4.9149    2.8279   -5.2082 C   0  0  0  0  0  0  0  0  0  0  0  0
    5.6836    3.1040   -6.3463 C   0  0  0  0  0  0  0  0  0  0  0  0
    5.1058    3.0984   -7.6214 C   0  0  0  0  0  0  0  0  0  0  0  0
    3.7527    2.8061   -7.7770 C   0  0  0  0  0  0  0  0  0  0  0  0
    2.9707    2.5004   -6.6513 C   0  0  0  0  0  0  0  0  0  0  0  0
    1.5151    2.1904   -6.8752 C   0  0  0  0  0  0  0  0  0  0  0  0
    0.9386    2.4404   -7.9012 O   0  0  0  0  0  0  0  0  0  0  0  0
    0.8600    1.5954   -5.8524 O   0  0  0  0  0  0  0  0  0  0  0  0
    3.5566    2.5252   -5.3781 C   0  0  0  0  0  0  0  0  0  0  0  0
    5.2568    2.2202   -1.5002 C   0  0  0  0  0  0  0  0  0  0  0  0
    0.2415    0.2475    1.2332 H   0  0  0  0  0  0  0  0  0  0  0  0
    0.3091    0.6389   -0.4999 H   0  0  0  0  0  0  0  0  0  0  0  0
    0.5623    1.9164    0.7083 H   0  0  0  0  0  0  0  0  0  0  0  0
    2.4264   -0.5094    0.2868 H   0  0  0  0  0  0  0  0  0  0  0  0
    2.6889    0.7666    1.4727 H   0  0  0  0  0  0  0  0  0  0  0  0
    2.8042    2.4634   -0.4033 H   0  0  0  0  0  0  0  0  0  0  0  0
    2.6455    1.1687   -1.5788 H   0  0  0  0  0  0  0  0  0  0  0  0
    4.9051    1.4818    0.4726 H   0  0  0  0  0  0  0  0  0  0  0  0
    4.5443   -0.9458   -0.2529 H   0  0  0  0  0  0  0  0  0  0  0  0
    6.1295   -0.2607   -0.6072 H   0  0  0  0  0  0  0  0  0  0  0  0
    3.8344   -0.6103   -2.6257 H   0  0  0  0  0  0  0  0  0  0  0  0
    5.3632   -1.4976   -2.5926 H   0  0  0  0  0  0  0  0  0  0  0  0
    5.3521    0.3548   -4.2985 H   0  0  0  0  0  0  0  0  0  0  0  0
    6.6545    0.5242   -3.1008 H   0  0  0  0  0  0  0  0  0  0  0  0
    6.6244    2.9146   -3.8967 H   0  0  0  0  0  0  0  0  0  0  0  0
    5.2424    3.8928   -3.3832 H   0  0  0  0  0  0  0  0  0  0  0  0
    6.7480    3.3299   -6.2338 H   0  0  0  0  0  0  0  0  0  0  0  0
    5.7203    3.3212   -8.4973 H   0  0  0  0  0  0  0  0  0  0  0  0
    3.2766    2.8010   -8.7591 H   0  0  0  0  0  0  0  0  0  0  0  0
    1.4787    1.3632   -5.1460 H   0  0  0  0  0  0  0  0  0  0  0  0
    2.9777    2.3237   -4.4718 H   0  0  0  0  0  0  0  0  0  0  0  0
    4.8750    3.2389   -1.3212 H   0  0  0  0  0  0  0  0  0  0  0  0
    6.3481    2.2429   -1.2665 H   0  0  0  0  0  0  0  0  0  0  0  0
  1  2  1  0
  1 20  1  0
  1 21  1  0
  1 22  1  0
  2  3  1  0
  2 23  1  0
  2 24  1  0
  3  4  1  0
  3 25  1  0
  3 26  1  0
  4  5  1  0
  4 19  1  0
  4 27  1  1
  5  6  1  0
  5 28  1  0
  5 29  1  0
  6  7  1  0
  6 30  1  0
  6 31  1  0
  7  8  1  0
  7 32  1  0
  7 33  1  0
  8  9  1  0
  8 19  1  0
  9 10  1  0
  9 34  1  0
  9 35  1  0
 10 11  2  0
 10 18  1  0
 11 12  1  0
 11 36  1  0
 12 13  2  0
 12 37  1  0
 13 14  1  0
 13 38  1  0
 14 15  1  0
 14 18  2  0
 15 16  2  0
 15 17  1  0
 17 39  1  0
 18 40  1  0
 19 41  1  0
 19 42  1  0
M  END

