
     RDKit          3D

 15 15  0  0  0  0  0  0  0  0999 V2000
    1.5541    0.4785    0.7587 O   0  0  0  0  0  0  0  0  0  0  0  0
    2.2699   -0.0844   -0.0487 C   0  0  0  0  0  0  0  0  0  0  0  0
    2.9519    0.5778   -1.1479 C   0  0  0  0  0  0  0  0  0  0  0  0
    2.8986    1.9954   -1.4633 C   0  0  0  0  0  0  0  0  0  0  0  0
    3.6856    2.2056   -2.5590 C   0  0  0  0  0  0  0  0  0  0  0  0
    4.0231    3.2666   -3.3219 O   0  0  0  0  0  0  0  0  0  0  0  0
    4.1677    0.9635   -2.9741 N   0  0  0  0  0  0  0  0  0  0  0  0
    5.2178    0.7607   -3.8369 O   0  0  0  0  0  0  0  0  0  0  0  0
    3.7730   -0.0176   -2.0953 C   0  0  0  0  0  0  0  0  0  0  0  0
    4.1887   -1.2808   -2.2420 O   0  0  0  0  0  0  0  0  0  0  0  0
    2.4519   -1.1881    0.0163 H   0  0  0  0  0  0  0  0  0  0  0  0
    2.3025    2.7257   -0.9215 H   0  0  0  0  0  0  0  0  0  0  0  0
    3.6303    4.0616   -2.9384 H   0  0  0  0  0  0  0  0  0  0  0  0
    4.8493    0.8646   -4.7306 H   0  0  0  0  0  0  0  0  0  0  0  0
    4.9179   -1.2883   -2.8837 H   0  0  0  0  0  0  0  0  0  0  0  0
  1  2  2  0
  2  3  1  0
  2 11  1  0
  3  4  1  0
  3  9  2  0
  4  5  2  0
  4 12  1  0
  5  6  1  0
  5  7  1  0
  6 13  1  0
  7  8  1  0
  7  9  1  0
  8 14  1  0
  9 10  1  0
 10 15  1  0
M  END

