
     RDKit          3D

 37 38  0  0  0  0  0  0  0  0999 V2000
    0.8490   -0.4879   -0.0031 C   0  0  0  0  0  0  0  0  0  0  0  0
    2.3444   -0.1911   -0.0210 C   0  0  0  0  0  0  0  0  0  0  0  0
    3.1179   -1.3770    0.3239 N   0  0  0  0  0  0  0  0  0  0  0  0
    4.5629   -1.2166    0.2697 C   0  0  1  0  0  0  0  0  0  0  0  0
    5.0731   -0.3110    1.3857 C   0  0  0  0  0  0  0  0  0  0  0  0
    4.5044   -0.3443    2.6692 C   0  0  0  0  0  0  0  0  0  0  0  0
    4.9884    0.4649    3.6989 C   0  0  0  0  0  0  0  0  0  0  0  0
    6.0570    1.3303    3.4481 C   0  0  0  0  0  0  0  0  0  0  0  0
    6.6698    2.3496    4.7331 Cl  0  0  0  0  0  0  0  0  0  0  0  0
    6.6311    1.3978    2.1766 C   0  0  0  0  0  0  0  0  0  0  0  0
    6.1314    0.5819    1.1585 C   0  0  0  0  0  0  0  0  0  0  0  0
    5.2321   -2.6324    0.2745 C   0  0  1  0  0  0  0  0  0  0  0  0
    6.7298   -2.5373   -0.0310 C   0  0  0  0  0  0  0  0  0  0  0  0
    4.9442   -3.4729    1.5368 C   0  0  0  0  0  0  0  0  0  0  0  0
    4.8892   -4.9044    0.9900 C   0  0  0  0  0  0  0  0  0  0  0  0
    4.2413   -4.6906   -0.3815 C   0  0  0  0  0  0  0  0  0  0  0  0
    4.6030   -3.3744   -0.7963 O   0  0  0  0  0  0  0  0  0  0  0  0
    0.2642    0.4134   -0.2448 H   0  0  0  0  0  0  0  0  0  0  0  0
    0.5353   -0.8524    0.9878 H   0  0  0  0  0  0  0  0  0  0  0  0
    0.5868   -1.2625   -0.7442 H   0  0  0  0  0  0  0  0  0  0  0  0
    2.5702    0.6041    0.7093 H   0  0  0  0  0  0  0  0  0  0  0  0
    2.6307    0.2210   -1.0160 H   0  0  0  0  0  0  0  0  0  0  0  0
    2.8865   -2.1289   -0.3260 H   0  0  0  0  0  0  0  0  0  0  0  0
    4.8789   -0.7543   -0.6923 H   0  0  0  0  0  0  0  0  0  0  0  0
    3.6535   -1.0027    2.8523 H   0  0  0  0  0  0  0  0  0  0  0  0
    4.5387    0.4333    4.6929 H   0  0  0  0  0  0  0  0  0  0  0  0
    7.4543    2.0888    1.9872 H   0  0  0  0  0  0  0  0  0  0  0  0
    6.5749    0.6493    0.1613 H   0  0  0  0  0  0  0  0  0  0  0  0
    7.2633   -1.9451    0.7266 H   0  0  0  0  0  0  0  0  0  0  0  0
    6.8873   -2.0743   -1.0172 H   0  0  0  0  0  0  0  0  0  0  0  0
    7.1787   -3.5415   -0.0599 H   0  0  0  0  0  0  0  0  0  0  0  0
    3.9628   -3.1900    1.9446 H   0  0  0  0  0  0  0  0  0  0  0  0
    5.7006   -3.3301    2.3213 H   0  0  0  0  0  0  0  0  0  0  0  0
    4.3118   -5.5900    1.6283 H   0  0  0  0  0  0  0  0  0  0  0  0
    5.9014   -5.3259    0.8824 H   0  0  0  0  0  0  0  0  0  0  0  0
    3.1384   -4.7676   -0.3155 H   0  0  0  0  0  0  0  0  0  0  0  0
    4.5809   -5.4147   -1.1411 H   0  0  0  0  0  0  0  0  0  0  0  0
  1  2  1  0
  1 18  1  0
  1 19  1  0
  1 20  1  0
  2  3  1  0
  2 21  1  0
  2 22  1  0
  3  4  1  0
  3 23  1  0
  4  5  1  0
  4 12  1  0
  4 24  1  6
  5  6  2  0
  5 11  1  0
  6  7  1  0
  6 25  1  0
  7  8  2  0
  7 26  1  0
  8  9  1  0
  8 10  1  0
 10 11  2  0
 10 27  1  0
 11 28  1  0
 12 13  1  6
 12 14  1  0
 12 17  1  0
 13 29  1  0
 13 30  1  0
 13 31  1  0
 14 15  1  0
 14 32  1  0
 14 33  1  0
 15 16  1  0
 15 34  1  0
 15 35  1  0
 16 17  1  0
 16 36  1  0
 16 37  1  0
M  END

