
     RDKit          3D

 33 34  0  0  0  0  0  0  0  0999 V2000
    2.5255   -0.5387    1.7132 C   0  0  0  0  0  0  0  0  0  0  0  0
    2.7082    0.0809    0.3211 C   0  0  1  0  0  0  0  0  0  0  0  0
    3.4625    1.4185    0.4093 C   0  0  0  0  0  0  0  0  0  0  0  0
    4.1798    1.6590    1.3619 O   0  0  0  0  0  0  0  0  0  0  0  0
    3.3094    2.4218   -0.7018 C   0  0  0  0  0  0  0  0  0  0  0  0
    2.5637    2.1775   -1.8651 C   0  0  0  0  0  0  0  0  0  0  0  0
    2.4790    3.1657   -2.8527 C   0  0  0  0  0  0  0  0  0  0  0  0
    3.1127    4.3945   -2.6843 C   0  0  0  0  0  0  0  0  0  0  0  0
    3.8563    4.6360   -1.5198 C   0  0  0  0  0  0  0  0  0  0  0  0
    4.4618    5.8712   -1.4387 O   0  0  0  0  0  0  0  0  0  0  0  0
    4.8072    6.3755   -0.2144 C   0  0  1  0  0  0  0  0  0  0  0  0
    5.9705    5.8321    0.2199 F   0  0  0  0  0  0  0  0  0  0  0  0
    5.0063    7.6884   -0.3746 F   0  0  0  0  0  0  0  0  0  0  0  0
    3.9706    3.6539   -0.5379 C   0  0  0  0  0  0  0  0  0  0  0  0
    3.4308   -0.8602   -0.6403 C   0  0  0  0  0  0  0  0  0  0  0  0
    4.7488   -1.2787   -0.3908 C   0  0  0  0  0  0  0  0  0  0  0  0
    5.3564   -2.1619   -1.2827 C   0  0  0  0  0  0  0  0  0  0  0  0
    4.6343   -2.5994   -2.3958 C   0  0  0  0  0  0  0  0  0  0  0  0
    3.3335   -2.1187   -2.5651 C   0  0  0  0  0  0  0  0  0  0  0  0
    2.7464   -1.2712   -1.7157 N   0  0  0  0  0  0  0  0  0  0  0  0
    1.9357    0.1294    2.3595 H   0  0  0  0  0  0  0  0  0  0  0  0
    3.4929   -0.7013    2.2084 H   0  0  0  0  0  0  0  0  0  0  0  0
    1.9987   -1.5016    1.6352 H   0  0  0  0  0  0  0  0  0  0  0  0
    1.7209    0.2594   -0.1262 H   0  0  0  0  0  0  0  0  0  0  0  0
    2.0740    1.2155   -2.0234 H   0  0  0  0  0  0  0  0  0  0  0  0
    1.9063    2.9754   -3.7635 H   0  0  0  0  0  0  0  0  0  0  0  0
    3.0478    5.1814   -3.4383 H   0  0  0  0  0  0  0  0  0  0  0  0
    4.0321    6.1975    0.5536 H   0  0  0  0  0  0  0  0  0  0  0  0
    4.5787    3.7916    0.3562 H   0  0  0  0  0  0  0  0  0  0  0  0
    5.2847   -0.9090    0.4861 H   0  0  0  0  0  0  0  0  0  0  0  0
    6.3813   -2.5021   -1.1125 H   0  0  0  0  0  0  0  0  0  0  0  0
    5.0681   -3.2917   -3.1208 H   0  0  0  0  0  0  0  0  0  0  0  0
    2.7369   -2.4310   -3.4304 H   0  0  0  0  0  0  0  0  0  0  0  0
  1  2  1  0
  1 21  1  0
  1 22  1  0
  1 23  1  0
  2  3  1  0
  2 15  1  0
  2 24  1  6
  3  4  2  0
  3  5  1  0
  5  6  2  0
  5 14  1  0
  6  7  1  0
  6 25  1  0
  7  8  2  0
  7 26  1  0
  8  9  1  0
  8 27  1  0
  9 10  1  0
  9 14  2  0
 10 11  1  0
 11 12  1  0
 11 13  1  0
 11 28  1  1
 14 29  1  0
 15 16  2  0
 15 20  1  0
 16 17  1  0
 16 30  1  0
 17 18  2  0
 17 31  1  0
 18 19  1  0
 18 32  1  0
 19 20  2  0
 19 33  1  0
M  END

