
     RDKit          3D

 35 35  0  0  0  0  0  0  0  0999 V2000
    2.1030    0.0388   -0.0909 C   0  0  0  0  0  0  0  0  0  0  0  0
    3.5068   -0.9444    0.5248 S   0  0  0  0  0  0  0  0  0  0  0  0
    4.2438    0.2035    1.7271 C   0  0  0  0  0  0  0  0  0  0  0  0
    4.8979    1.4582    1.1187 C   0  0  0  0  0  0  0  0  0  0  0  0
    4.7267    1.7572   -0.0523 O   0  0  0  0  0  0  0  0  0  0  0  0
    5.6686    2.2340    1.9571 N   0  0  0  0  0  0  0  0  0  0  0  0
    5.8322    2.0215    3.3878 C   0  0  0  0  0  0  0  0  0  0  0  0
    5.2567    3.1407    4.2726 C   0  0  0  0  0  0  0  0  0  0  0  0
    6.0144    4.4755    4.1905 C   0  0  0  0  0  0  0  0  0  0  0  0
    5.6730    5.4429    3.0214 C   0  0  2  0  0  0  0  0  0  0  0  0
    6.8477    6.4311    2.8777 C   0  0  0  0  0  0  0  0  0  0  0  0
    4.3972    6.2373    3.3611 C   0  0  0  0  0  0  0  0  0  0  0  0
    5.4438    4.7130    1.6661 C   0  0  0  0  0  0  0  0  0  0  0  0
    6.2694    3.4450    1.3932 C   0  0  0  0  0  0  0  0  0  0  0  0
    1.5654   -0.6030   -0.8041 H   0  0  0  0  0  0  0  0  0  0  0  0
    2.4668    0.9382   -0.6040 H   0  0  0  0  0  0  0  0  0  0  0  0
    1.4144    0.3097    0.7256 H   0  0  0  0  0  0  0  0  0  0  0  0
    4.9876   -0.4017    2.2672 H   0  0  0  0  0  0  0  0  0  0  0  0
    3.4844    0.5040    2.4702 H   0  0  0  0  0  0  0  0  0  0  0  0
    6.9116    1.9167    3.6136 H   0  0  0  0  0  0  0  0  0  0  0  0
    5.3660    1.0704    3.6680 H   0  0  0  0  0  0  0  0  0  0  0  0
    5.3063    2.7770    5.3134 H   0  0  0  0  0  0  0  0  0  0  0  0
    4.1844    3.2750    4.0476 H   0  0  0  0  0  0  0  0  0  0  0  0
    7.0949    4.2468    4.1664 H   0  0  0  0  0  0  0  0  0  0  0  0
    5.8613    5.0325    5.1304 H   0  0  0  0  0  0  0  0  0  0  0  0
    7.0764    6.9206    3.8390 H   0  0  0  0  0  0  0  0  0  0  0  0
    6.6157    7.2212    2.1451 H   0  0  0  0  0  0  0  0  0  0  0  0
    7.7652    5.9202    2.5405 H   0  0  0  0  0  0  0  0  0  0  0  0
    4.5465    6.8738    4.2489 H   0  0  0  0  0  0  0  0  0  0  0  0
    3.5458    5.5674    3.5659 H   0  0  0  0  0  0  0  0  0  0  0  0
    4.1057    6.8925    2.5236 H   0  0  0  0  0  0  0  0  0  0  0  0
    5.6322    5.4379    0.8558 H   0  0  0  0  0  0  0  0  0  0  0  0
    4.3829    4.4326    1.5620 H   0  0  0  0  0  0  0  0  0  0  0  0
    7.2967    3.5404    1.7853 H   0  0  0  0  0  0  0  0  0  0  0  0
    6.3367    3.2833    0.3110 H   0  0  0  0  0  0  0  0  0  0  0  0
  1  2  1  0
  1 15  1  0
  1 16  1  0
  1 17  1  0
  2  3  1  0
  3  4  1  0
  3 18  1  0
  3 19  1  0
  4  5  2  0
  4  6  1  0
  6  7  1  0
  6 14  1  0
  7  8  1  0
  7 20  1  0
  7 21  1  0
  8  9  1  0
  8 22  1  0
  8 23  1  0
  9 10  1  0
  9 24  1  0
  9 25  1  0
 10 11  1  6
 10 12  1  0
 10 13  1  0
 11 26  1  0
 11 27  1  0
 11 28  1  0
 12 29  1  0
 12 30  1  0
 12 31  1  0
 13 14  1  0
 13 32  1  0
 13 33  1  0
 14 34  1  0
 14 35  1  0
M  END

