
     RDKit          3D

 42 44  0  0  0  0  0  0  0  0999 V2000
    4.5302   -0.2199   -1.1212 C   0  0  0  0  0  0  0  0  0  0  0  0
    3.5952    0.1849   -0.0794 N   0  0  0  0  0  0  0  0  0  0  0  0
    3.5071    1.4416    0.4801 C   0  0  0  0  0  0  0  0  0  0  0  0
    2.5152    1.3647    1.4319 C   0  0  0  0  0  0  0  0  0  0  0  0
    1.9978    0.0990    1.4675 N   0  0  0  0  0  0  0  0  0  0  0  0
    2.6513   -0.5894    0.5482 C   0  0  0  0  0  0  0  0  0  0  0  0
    2.4709   -2.0633    0.2712 C   0  0  1  0  0  0  0  0  0  0  0  0
    3.1189   -2.3304   -0.5722 H   0  0  0  0  0  0  0  0  0  0  0  0
    2.9847   -2.8676    1.3895 N   0  0  0  0  0  0  0  0  0  0  0  0
    4.2557   -3.3495    1.4061 C   0  0  0  0  0  0  0  0  0  0  0  0
    5.0340   -3.2062    0.4707 O   0  0  0  0  0  0  0  0  0  0  0  0
    4.6559   -4.1215    2.6671 C   0  0  0  0  0  0  0  0  0  0  0  0
    5.8316   -3.5021    3.3969 C   0  0  0  0  0  0  0  0  0  0  0  0
    5.7032   -3.0552    4.7191 C   0  0  0  0  0  0  0  0  0  0  0  0
    6.7868   -2.4892    5.3919 C   0  0  0  0  0  0  0  0  0  0  0  0
    8.0226   -2.3556    4.7533 C   0  0  0  0  0  0  0  0  0  0  0  0
    9.3590   -1.6486    5.6160 Cl  0  0  0  0  0  0  0  0  0  0  0  0
    8.1613   -2.7967    3.4254 C   0  0  0  0  0  0  0  0  0  0  0  0
    9.6812   -2.6484    2.5879 Cl  0  0  0  0  0  0  0  0  0  0  0  0
    7.0730   -3.3650    2.7592 C   0  0  0  0  0  0  0  0  0  0  0  0
    1.0511   -2.5042   -0.0794 C   0  0  0  0  0  0  0  0  0  0  0  0
    0.8816   -3.5635   -0.9857 C   0  0  0  0  0  0  0  0  0  0  0  0
   -0.3878   -4.0435   -1.3103 C   0  0  0  0  0  0  0  0  0  0  0  0
   -1.5095   -3.4581   -0.7159 C   0  0  0  0  0  0  0  0  0  0  0  0
   -3.1067   -4.0493   -1.1153 Cl  0  0  0  0  0  0  0  0  0  0  0  0
   -1.3662   -2.4045    0.1901 C   0  0  0  0  0  0  0  0  0  0  0  0
   -0.0892   -1.9318    0.5046 C   0  0  0  0  0  0  0  0  0  0  0  0
    5.3060    0.5508   -1.2176 H   0  0  0  0  0  0  0  0  0  0  0  0
    4.0228   -0.3268   -2.0936 H   0  0  0  0  0  0  0  0  0  0  0  0
    5.0089   -1.1720   -0.8501 H   0  0  0  0  0  0  0  0  0  0  0  0
    4.1480    2.2585    0.1574 H   0  0  0  0  0  0  0  0  0  0  0  0
    2.1543    2.1551    2.0889 H   0  0  0  0  0  0  0  0  0  0  0  0
    2.4180   -2.9078    2.2289 H   0  0  0  0  0  0  0  0  0  0  0  0
    4.9255   -5.1341    2.3219 H   0  0  0  0  0  0  0  0  0  0  0  0
    3.8028   -4.2305    3.3526 H   0  0  0  0  0  0  0  0  0  0  0  0
    4.7458   -3.1502    5.2380 H   0  0  0  0  0  0  0  0  0  0  0  0
    6.6854   -2.1436    6.4219 H   0  0  0  0  0  0  0  0  0  0  0  0
    7.1899   -3.6838    1.7233 H   0  0  0  0  0  0  0  0  0  0  0  0
    1.7579   -4.0256   -1.4496 H   0  0  0  0  0  0  0  0  0  0  0  0
   -0.5127   -4.8627   -2.0203 H   0  0  0  0  0  0  0  0  0  0  0  0
   -2.2516   -1.9549    0.6430 H   0  0  0  0  0  0  0  0  0  0  0  0
    0.0337   -1.0997    1.2004 H   0  0  0  0  0  0  0  0  0  0  0  0
  1  2  1  0
  1 28  1  0
  1 29  1  0
  1 30  1  0
  2  3  1  0
  2  6  1  0
  3  4  2  0
  3 31  1  0
  4  5  1  0
  4 32  1  0
  5  6  2  0
  6  7  1  0
  7  8  1  6
  7  9  1  0
  7 21  1  0
  9 10  1  0
  9 33  1  0
 10 11  2  0
 10 12  1  0
 12 13  1  0
 12 34  1  0
 12 35  1  0
 13 14  2  0
 13 20  1  0
 14 15  1  0
 14 36  1  0
 15 16  2  0
 15 37  1  0
 16 17  1  0
 16 18  1  0
 18 19  1  0
 18 20  2  0
 20 38  1  0
 21 22  2  0
 21 27  1  0
 22 23  1  0
 22 39  1  0
 23 24  2  0
 23 40  1  0
 24 25  1  0
 24 26  1  0
 26 27  2  0
 26 41  1  0
 27 42  1  0
M  END

