
     RDKit          3D

 43 44  0  0  0  0  0  0  0  0999 V2000
    6.4010   -3.2269    2.1071 C   0  0  0  0  0  0  0  0  0  0  0  0
    6.2416   -2.5626    0.7570 C   0  0  0  0  0  0  0  0  0  0  0  0
    6.0090   -1.1558    0.9727 O   0  0  0  0  0  0  0  0  0  0  0  0
    5.9366   -0.3584   -0.1219 C   0  0  0  0  0  0  0  0  0  0  0  0
    7.1018    0.1837   -0.6896 C   0  0  0  0  0  0  0  0  0  0  0  0
    8.7995   -0.2113    0.0728 Br  0  0  0  0  0  0  0  0  0  0  0  0
    7.0414    1.0383   -1.7911 C   0  0  0  0  0  0  0  0  0  0  0  0
    5.7928    1.3553   -2.3339 C   0  0  0  0  0  0  0  0  0  0  0  0
    5.7105    2.5218   -3.8371 Br  0  0  0  0  0  0  0  0  0  0  0  0
    4.6167    0.8449   -1.7956 C   0  0  0  0  0  0  0  0  0  0  0  0
    4.6635   -0.0180   -0.6787 C   0  0  0  0  0  0  0  0  0  0  0  0
    3.5091   -0.5561    0.0331 C   0  0  0  0  0  0  0  0  0  0  0  0
    2.1615   -0.6879   -0.1904 C   0  0  0  0  0  0  0  0  0  0  0  0
    1.4236   -1.3077    0.8785 C   0  0  0  0  0  0  0  0  0  0  0  0
    0.7800   -1.8099    1.7072 N   0  0  0  0  0  0  0  0  0  0  0  0
    1.3616   -0.3151   -1.4158 C   0  0  0  0  0  0  0  0  0  0  0  0
    1.8368    0.2982   -2.3570 O   0  0  0  0  0  0  0  0  0  0  0  0
    0.0504   -0.7390   -1.3717 N   0  0  0  0  0  0  0  0  0  0  0  0
   -0.9694   -0.5697   -2.3208 C   0  0  0  0  0  0  0  0  0  0  0  0
   -0.7650    0.0887   -3.5492 C   0  0  0  0  0  0  0  0  0  0  0  0
   -1.8147    0.2266   -4.4528 C   0  0  0  0  0  0  0  0  0  0  0  0
   -3.0645   -0.2942   -4.1261 C   0  0  0  0  0  0  0  0  0  0  0  0
   -4.1801   -0.1533   -5.0768 N   0  0  0  0  0  0  0  0  0  0  0  0
   -3.9567    0.4244   -6.1293 O   0  0  0  0  0  0  0  0  0  0  0  0
   -5.2615   -0.6230   -4.7552 O   0  0  0  0  0  0  0  0  0  0  0  0
   -3.2849   -0.9494   -2.9137 C   0  0  0  0  0  0  0  0  0  0  0  0
   -2.2491   -1.0995   -1.9926 C   0  0  0  0  0  0  0  0  0  0  0  0
   -2.4900   -1.8079   -0.6815 C   0  0  0  0  0  0  0  0  0  0  0  0
    6.5774   -4.3057    1.9761 H   0  0  0  0  0  0  0  0  0  0  0  0
    5.4972   -3.0961    2.7219 H   0  0  0  0  0  0  0  0  0  0  0  0
    7.2554   -2.7960    2.6500 H   0  0  0  0  0  0  0  0  0  0  0  0
    5.3869   -2.9845    0.1963 H   0  0  0  0  0  0  0  0  0  0  0  0
    7.1476   -2.6902    0.1411 H   0  0  0  0  0  0  0  0  0  0  0  0
    7.9567    1.4527   -2.2141 H   0  0  0  0  0  0  0  0  0  0  0  0
    3.6504    1.0952   -2.2251 H   0  0  0  0  0  0  0  0  0  0  0  0
    3.8172   -0.9617    1.0007 H   0  0  0  0  0  0  0  0  0  0  0  0
   -0.2263   -1.2410   -0.5347 H   0  0  0  0  0  0  0  0  0  0  0  0
    0.2189    0.4860   -3.7812 H   0  0  0  0  0  0  0  0  0  0  0  0
   -1.6764    0.7325   -5.4078 H   0  0  0  0  0  0  0  0  0  0  0  0
   -4.2805   -1.3396   -2.7024 H   0  0  0  0  0  0  0  0  0  0  0  0
   -3.5349   -2.1358   -0.6015 H   0  0  0  0  0  0  0  0  0  0  0  0
   -2.2829   -1.1583    0.1867 H   0  0  0  0  0  0  0  0  0  0  0  0
   -1.8566   -2.7058   -0.5724 H   0  0  0  0  0  0  0  0  0  0  0  0
  1  2  1  0
  1 29  1  0
  1 30  1  0
  1 31  1  0
  2  3  1  0
  2 32  1  0
  2 33  1  0
  3  4  1  0
  4  5  2  0
  4 11  1  0
  5  6  1  0
  5  7  1  0
  7  8  2  0
  7 34  1  0
  8  9  1  0
  8 10  1  0
 10 11  2  0
 10 35  1  0
 11 12  1  0
 12 13  2  0
 12 36  1  0
 13 14  1  0
 13 16  1  0
 14 15  3  0
 16 17  2  0
 16 18  1  0
 18 19  1  0
 18 37  1  0
 19 20  2  0
 19 27  1  0
 20 21  1  0
 20 38  1  0
 21 22  2  0
 21 39  1  0
 22 23  1  0
 22 26  1  0
 23 24  2  0
 23 25  1  0
 26 27  2  0
 26 40  1  0
 27 28  1  0
 28 41  1  0
 28 42  1  0
 28 43  1  0
M  CHG  2  23   1  25  -1
M  END

