
     RDKit          3D

 21 21  0  0  0  0  0  0  0  0999 V2000
    0.9380    0.0574    0.3118 C   0  0  0  0  0  0  0  0  0  0  0  0
    2.4255    0.0239    0.0531 C   0  0  0  0  0  0  0  0  0  0  0  0
    3.1777    1.2032    0.1519 C   0  0  0  0  0  0  0  0  0  0  0  0
    4.5576    1.2260   -0.0638 C   0  0  0  0  0  0  0  0  0  0  0  0
    5.1918    0.0321   -0.3843 C   0  0  0  0  0  0  0  0  0  0  0  0
    6.5174    0.0227   -0.5966 F   0  0  0  0  0  0  0  0  0  0  0  0
    4.4836   -1.1602   -0.4942 C   0  0  0  0  0  0  0  0  0  0  0  0
    3.0984   -1.1792   -0.2795 C   0  0  0  0  0  0  0  0  0  0  0  0
    2.3273   -2.4764   -0.3894 C   0  0  1  0  0  0  0  0  0  0  0  0
    2.9498   -3.5756   -1.2360 C   0  0  0  0  0  0  0  0  0  0  0  0
    2.0308   -3.1528    1.3088 Cl  0  0  0  0  0  0  0  0  0  0  0  0
    0.6170    1.0609    0.6255 H   0  0  0  0  0  0  0  0  0  0  0  0
    0.6524   -0.6573    1.0996 H   0  0  0  0  0  0  0  0  0  0  0  0
    0.3568   -0.2062   -0.5889 H   0  0  0  0  0  0  0  0  0  0  0  0
    2.6676    2.1359    0.4074 H   0  0  0  0  0  0  0  0  0  0  0  0
    5.1385    2.1469    0.0140 H   0  0  0  0  0  0  0  0  0  0  0  0
    5.0373   -2.0646   -0.7469 H   0  0  0  0  0  0  0  0  0  0  0  0
    1.3141   -2.2679   -0.7540 H   0  0  0  0  0  0  0  0  0  0  0  0
    3.9059   -3.9211   -0.8175 H   0  0  0  0  0  0  0  0  0  0  0  0
    3.1258   -3.2096   -2.2607 H   0  0  0  0  0  0  0  0  0  0  0  0
    2.2741   -4.4412   -1.2841 H   0  0  0  0  0  0  0  0  0  0  0  0
  1  2  1  0
  1 12  1  0
  1 13  1  0
  1 14  1  0
  2  3  2  0
  2  8  1  0
  3  4  1  0
  3 15  1  0
  4  5  2  0
  4 16  1  0
  5  6  1  0
  5  7  1  0
  7  8  2  0
  7 17  1  0
  8  9  1  0
  9 10  1  0
  9 11  1  0
  9 18  1  6
 10 19  1  0
 10 20  1  0
 10 21  1  0
M  END

