
     RDKit          3D

 59 60  0  0  0  0  0  0  0  0999 V2000
    2.9544    1.0568    5.8502 C   0  0  0  0  0  0  0  0  0  0  0  0
    3.1483    0.2194    4.7440 O   0  0  0  0  0  0  0  0  0  0  0  0
    3.7835   -0.9963    5.0332 C   0  0  0  0  0  0  0  0  0  0  0  0
    4.0331   -1.7252    3.7155 C   0  0  0  0  0  0  0  0  0  0  0  0
    4.9343   -1.0400    2.8120 N   0  0  0  0  0  0  0  0  0  0  0  0
    6.2817   -1.2952    2.6651 C   0  0  0  0  0  0  0  0  0  0  0  0
    7.0227   -0.8397    1.7008 N   0  0  0  0  0  0  0  0  0  0  0  0
    6.3660   -0.1442    0.6130 C   0  0  0  0  0  0  0  0  0  0  0  0
    6.0275    1.2804    0.9528 C   0  0  0  0  0  0  0  0  0  0  0  0
    4.8542    1.6956    1.3735 N   0  0  0  0  0  0  0  0  0  0  0  0
    4.9588    3.0246    1.6881 N   0  0  0  0  0  0  0  0  0  0  0  0
    6.1984    3.3912    1.4606 C   0  0  0  0  0  0  0  0  0  0  0  0
    6.7430    4.7644    1.6635 C   0  0  0  0  0  0  0  0  0  0  0  0
    6.9268    2.3158    0.9988 N   0  0  0  0  0  0  0  0  0  0  0  0
    8.3384    2.2483    0.6707 C   0  0  0  0  0  0  0  0  0  0  0  0
    6.8285   -2.1557    3.6022 N   0  0  0  0  0  0  0  0  0  0  0  0
    8.2115   -2.5727    3.5698 C   0  0  0  0  0  0  0  0  0  0  0  0
    9.0196   -2.0723    4.8028 C   0  0  1  0  0  0  0  0  0  0  0  0
   10.4490   -2.6496    4.6945 C   0  0  0  0  0  0  0  0  0  0  0  0
    9.1101   -0.5389    4.7330 C   0  0  0  0  0  0  0  0  0  0  0  0
    8.2787   -2.4941    6.0231 N   0  0  0  0  0  0  0  0  0  0  0  0
    8.1776   -3.9212    6.3299 C   0  0  0  0  0  0  0  0  0  0  0  0
    9.1858   -4.3917    7.3866 C   0  0  0  0  0  0  0  0  0  0  0  0
    9.1110   -3.6018    8.5582 O   0  0  0  0  0  0  0  0  0  0  0  0
    9.3189   -2.2300    8.2817 C   0  0  0  0  0  0  0  0  0  0  0  0
    8.2969   -1.7195    7.2619 C   0  0  0  0  0  0  0  0  0  0  0  0
    2.4676    1.9757    5.4932 H   0  0  0  0  0  0  0  0  0  0  0  0
    3.9134    1.3324    6.3353 H   0  0  0  0  0  0  0  0  0  0  0  0
    2.3074    0.5875    6.6202 H   0  0  0  0  0  0  0  0  0  0  0  0
    3.1537   -1.6296    5.6966 H   0  0  0  0  0  0  0  0  0  0  0  0
    4.7424   -0.8210    5.5691 H   0  0  0  0  0  0  0  0  0  0  0  0
    3.0571   -1.8444    3.2144 H   0  0  0  0  0  0  0  0  0  0  0  0
    4.4172   -2.7363    3.9162 H   0  0  0  0  0  0  0  0  0  0  0  0
    4.5843   -0.1668    2.4111 H   0  0  0  0  0  0  0  0  0  0  0  0
    5.4148   -0.6218    0.3081 H   0  0  0  0  0  0  0  0  0  0  0  0
    7.0294   -0.1625   -0.2692 H   0  0  0  0  0  0  0  0  0  0  0  0
    5.9298    5.4007    2.0360 H   0  0  0  0  0  0  0  0  0  0  0  0
    7.1272    5.2018    0.7267 H   0  0  0  0  0  0  0  0  0  0  0  0
    7.5627    4.7819    2.4019 H   0  0  0  0  0  0  0  0  0  0  0  0
    8.8817    3.0376    1.2078 H   0  0  0  0  0  0  0  0  0  0  0  0
    8.5125    2.3778   -0.4103 H   0  0  0  0  0  0  0  0  0  0  0  0
    8.7328    1.2724    0.9868 H   0  0  0  0  0  0  0  0  0  0  0  0
    6.4483   -2.1305    4.5433 H   0  0  0  0  0  0  0  0  0  0  0  0
    8.6588   -2.1826    2.6468 H   0  0  0  0  0  0  0  0  0  0  0  0
    8.2739   -3.6758    3.5205 H   0  0  0  0  0  0  0  0  0  0  0  0
   10.9273   -2.3126    3.7606 H   0  0  0  0  0  0  0  0  0  0  0  0
   10.4492   -3.7503    4.6806 H   0  0  0  0  0  0  0  0  0  0  0  0
   11.0798   -2.3186    5.5336 H   0  0  0  0  0  0  0  0  0  0  0  0
    9.4986   -0.2456    3.7479 H   0  0  0  0  0  0  0  0  0  0  0  0
    9.7892   -0.1284    5.4957 H   0  0  0  0  0  0  0  0  0  0  0  0
    8.1238   -0.0668    4.8499 H   0  0  0  0  0  0  0  0  0  0  0  0
    8.2861   -4.5225    5.4160 H   0  0  0  0  0  0  0  0  0  0  0  0
    7.1633   -4.1246    6.7263 H   0  0  0  0  0  0  0  0  0  0  0  0
   10.2160   -4.3667    6.9775 H   0  0  0  0  0  0  0  0  0  0  0  0
    8.9669   -5.4286    7.6884 H   0  0  0  0  0  0  0  0  0  0  0  0
   10.3523   -2.0638    7.9097 H   0  0  0  0  0  0  0  0  0  0  0  0
    9.2131   -1.6935    9.2385 H   0  0  0  0  0  0  0  0  0  0  0  0
    8.4616   -0.6543    7.0599 H   0  0  0  0  0  0  0  0  0  0  0  0
    7.2979   -1.8032    7.7343 H   0  0  0  0  0  0  0  0  0  0  0  0
  1  2  1  0
  1 27  1  0
  1 28  1  0
  1 29  1  0
  2  3  1  0
  3  4  1  0
  3 30  1  0
  3 31  1  0
  4  5  1  0
  4 32  1  0
  4 33  1  0
  5  6  1  0
  5 34  1  0
  6  7  2  0
  6 16  1  0
  7  8  1  0
  8  9  1  0
  8 35  1  0
  8 36  1  0
  9 10  2  0
  9 14  1  0
 10 11  1  0
 11 12  2  0
 12 13  1  0
 12 14  1  0
 13 37  1  0
 13 38  1  0
 13 39  1  0
 14 15  1  0
 15 40  1  0
 15 41  1  0
 15 42  1  0
 16 17  1  0
 16 43  1  0
 18 17  1  6
 17 44  1  0
 17 45  1  0
 18 19  1  0
 18 20  1  0
 18 21  1  0
 19 46  1  0
 19 47  1  0
 19 48  1  0
 20 49  1  0
 20 50  1  0
 20 51  1  0
 21 22  1  0
 21 26  1  0
 22 23  1  0
 22 52  1  0
 22 53  1  0
 23 24  1  0
 23 54  1  0
 23 55  1  0
 24 25  1  0
 25 26  1  0
 25 56  1  0
 25 57  1  0
 26 58  1  0
 26 59  1  0
M  END

