
     RDKit          3D

109117  0  0  0  0  0  0  0  0999 V2000
    4.0871   -3.7122   -4.4831 C   0  0  0  0  0  0  0  0  0  0  0  0
    3.6404   -2.7356   -3.4237 C   0  0  0  0  0  0  0  0  0  0  0  0
    2.3612   -2.8155   -2.8490 C   0  0  0  0  0  0  0  0  0  0  0  0
    1.9376   -1.9194   -1.8765 C   0  0  0  0  0  0  0  0  0  0  0  0
    2.7786   -0.8757   -1.4126 C   0  0  0  0  0  0  0  0  0  0  0  0
    4.0785   -0.7818   -1.9711 C   0  0  0  0  0  0  0  0  0  0  0  0
    4.4648   -1.7109   -2.9589 C   0  0  0  0  0  0  0  0  0  0  0  0
    5.3066    0.4989   -1.3895 Si  0  0  2  0  0  4  0  0  0  0  0  0
    5.9907    1.5104   -2.8422 C   0  0  0  0  0  0  0  0  0  0  0  0
    5.2120    1.7168   -3.9985 C   0  0  0  0  0  0  0  0  0  0  0  0
    5.6703    2.5153   -5.0501 C   0  0  0  0  0  0  0  0  0  0  0  0
    6.9232    3.1310   -4.9676 C   0  0  0  0  0  0  0  0  0  0  0  0
    7.7130    2.9418   -3.8300 C   0  0  0  0  0  0  0  0  0  0  0  0
    7.2507    2.1387   -2.7822 C   0  0  0  0  0  0  0  0  0  0  0  0
    6.7587   -0.2883   -0.4506 C   0  0  0  0  0  0  0  0  0  0  0  0
    6.7508   -0.3713    0.9553 C   0  0  0  0  0  0  0  0  0  0  0  0
    7.7833   -1.0077    1.6517 C   0  0  0  0  0  0  0  0  0  0  0  0
    8.8505   -1.5798    0.9536 C   0  0  0  0  0  0  0  0  0  0  0  0
    8.8801   -1.5097   -0.4428 C   0  0  0  0  0  0  0  0  0  0  0  0
    7.8467   -0.8695   -1.1331 C   0  0  0  0  0  0  0  0  0  0  0  0
    4.2552    1.5354   -0.2474 C   0  0  0  0  0  0  0  0  0  0  0  0
    4.7946    2.7161    0.3030 C   0  0  0  0  0  0  0  0  0  0  0  0
    4.0998    3.5488    1.1805 C   0  0  0  0  0  0  0  0  0  0  0  0
    4.7065    4.8083    1.7475 C   0  0  0  0  0  0  0  0  0  0  0  0
    2.7925    3.1546    1.5105 C   0  0  0  0  0  0  0  0  0  0  0  0
    2.2191    2.0041    0.9853 C   0  0  0  0  0  0  0  0  0  0  0  0
    2.9283    1.1656    0.0876 C   0  0  0  0  0  0  0  0  0  0  0  0
    2.2823    0.0103   -0.4220 N   0  0  0  0  0  0  0  0  0  0  0  0
    0.9638   -0.2653    0.0844 C   0  0  0  0  0  0  0  0  0  0  0  0
   -0.1711    0.2770   -0.5465 C   0  0  0  0  0  0  0  0  0  0  0  0
   -1.4326   -0.0037   -0.0412 C   0  0  0  0  0  0  0  0  0  0  0  0
   -1.6385   -0.8244    1.0985 C   0  0  0  0  0  0  0  0  0  0  0  0
   -0.4739   -1.3550    1.7113 C   0  0  0  0  0  0  0  0  0  0  0  0
    0.8117   -1.0744    1.2047 C   0  0  0  0  0  0  0  0  0  0  0  0
   -0.4854   -2.3935    3.1293 S   0  0  0  0  0  0  0  0  0  0  0  0
   -2.1757   -2.6038    3.5696 C   0  0  0  0  0  0  0  0  0  0  0  0
   -2.3862   -3.4212    4.6997 C   0  0  0  0  0  0  0  0  0  0  0  0
   -3.6770   -3.6661    5.1504 C   0  0  0  0  0  0  0  0  0  0  0  0
   -4.7775   -3.1021    4.4843 C   0  0  0  0  0  0  0  0  0  0  0  0
   -4.5623   -2.2983    3.3726 C   0  0  0  0  0  0  0  0  0  0  0  0
   -3.2637   -2.0172    2.8721 C   0  0  0  0  0  0  0  0  0  0  0  0
   -3.0758   -1.1104    1.6232 B   0  0  0  0  0  0  0  0  0  0  0  0
   -4.3369   -0.4814    0.8873 C   0  0  0  0  0  0  0  0  0  0  0  0
   -4.9744   -1.1730   -0.1698 C   0  0  0  0  0  0  0  0  0  0  0  0
   -4.4680   -2.5415   -0.6298 C   0  0  1  0  0  0  0  0  0  0  0  0
   -5.5094   -3.6515   -0.4052 C   0  0  0  0  0  0  0  0  0  0  0  0
   -3.9815   -2.5215   -2.0893 C   0  0  0  0  0  0  0  0  0  0  0  0
   -6.0864   -0.5997   -0.8050 C   0  0  0  0  0  0  0  0  0  0  0  0
   -6.5960    0.6476   -0.4281 C   0  0  0  0  0  0  0  0  0  0  0  0
   -7.8061    1.2428   -1.1389 C   0  0  2  0  0  0  0  0  0  0  0  0
   -7.4632    2.5570   -1.8617 C   0  0  0  0  0  0  0  0  0  0  0  0
   -9.0022    1.4259   -0.1887 C   0  0  0  0  0  0  0  0  0  0  0  0
   -5.9558    1.3232    0.6200 C   0  0  0  0  0  0  0  0  0  0  0  0
   -4.8433    0.7831    1.2790 C   0  0  0  0  0  0  0  0  0  0  0  0
   -4.1879    1.5690    2.4166 C   0  0  2  0  0  0  0  0  0  0  0  0
   -5.1415    1.7751    3.6062 C   0  0  0  0  0  0  0  0  0  0  0  0
   -3.5998    2.9069    1.9357 C   0  0  0  0  0  0  0  0  0  0  0  0
    3.4455   -3.6585   -5.3794 H   0  0  0  0  0  0  0  0  0  0  0  0
    4.0412   -4.7528   -4.1193 H   0  0  0  0  0  0  0  0  0  0  0  0
    5.1216   -3.5153   -4.8018 H   0  0  0  0  0  0  0  0  0  0  0  0
    1.6704   -3.6011   -3.1709 H   0  0  0  0  0  0  0  0  0  0  0  0
    0.9333   -2.0360   -1.4749 H   0  0  0  0  0  0  0  0  0  0  0  0
    5.4704   -1.6250   -3.3845 H   0  0  0  0  0  0  0  0  0  0  0  0
    4.2298    1.2423   -4.0806 H   0  0  0  0  0  0  0  0  0  0  0  0
    5.0478    2.6575   -5.9378 H   0  0  0  0  0  0  0  0  0  0  0  0
    7.2838    3.7558   -5.7893 H   0  0  0  0  0  0  0  0  0  0  0  0
    8.6945    3.4186   -3.7588 H   0  0  0  0  0  0  0  0  0  0  0  0
    7.8883    1.9961   -1.9050 H   0  0  0  0  0  0  0  0  0  0  0  0
    5.9243    0.0719    1.5181 H   0  0  0  0  0  0  0  0  0  0  0  0
    7.7546   -1.0563    2.7438 H   0  0  0  0  0  0  0  0  0  0  0  0
    9.6589   -2.0778    1.4959 H   0  0  0  0  0  0  0  0  0  0  0  0
    9.7127   -1.9530   -0.9961 H   0  0  0  0  0  0  0  0  0  0  0  0
    7.8960   -0.8183   -2.2249 H   0  0  0  0  0  0  0  0  0  0  0  0
    5.8170    2.9953    0.0261 H   0  0  0  0  0  0  0  0  0  0  0  0
    5.7521    4.9307    1.4278 H   0  0  0  0  0  0  0  0  0  0  0  0
    4.6908    4.8045    2.8506 H   0  0  0  0  0  0  0  0  0  0  0  0
    4.1516    5.7054    1.4230 H   0  0  0  0  0  0  0  0  0  0  0  0
    2.1991    3.7665    2.1972 H   0  0  0  0  0  0  0  0  0  0  0  0
    1.2003    1.7592    1.2782 H   0  0  0  0  0  0  0  0  0  0  0  0
   -0.0423    0.9115   -1.4255 H   0  0  0  0  0  0  0  0  0  0  0  0
   -2.3110    0.4195   -0.5339 H   0  0  0  0  0  0  0  0  0  0  0  0
    1.7012   -1.4896    1.6841 H   0  0  0  0  0  0  0  0  0  0  0  0
   -1.5311   -3.8615    5.2195 H   0  0  0  0  0  0  0  0  0  0  0  0
   -3.8302   -4.3011    6.0271 H   0  0  0  0  0  0  0  0  0  0  0  0
   -5.7925   -3.2953    4.8394 H   0  0  0  0  0  0  0  0  0  0  0  0
   -5.4170   -1.8588    2.8531 H   0  0  0  0  0  0  0  0  0  0  0  0
   -3.5929   -2.7959   -0.0062 H   0  0  0  0  0  0  0  0  0  0  0  0
   -5.8182   -3.7027    0.6505 H   0  0  0  0  0  0  0  0  0  0  0  0
   -6.4146   -3.4830   -1.0113 H   0  0  0  0  0  0  0  0  0  0  0  0
   -5.0994   -4.6355   -0.6868 H   0  0  0  0  0  0  0  0  0  0  0  0
   -3.5644   -3.5010   -2.3759 H   0  0  0  0  0  0  0  0  0  0  0  0
   -3.1987   -1.7619   -2.2404 H   0  0  0  0  0  0  0  0  0  0  0  0
   -4.8054   -2.2954   -2.7859 H   0  0  0  0  0  0  0  0  0  0  0  0
   -6.5764   -1.1388   -1.6217 H   0  0  0  0  0  0  0  0  0  0  0  0
   -8.1099    0.5143   -1.9109 H   0  0  0  0  0  0  0  0  0  0  0  0
   -8.3336    2.9339   -2.4238 H   0  0  0  0  0  0  0  0  0  0  0  0
   -7.1640    3.3425   -1.1483 H   0  0  0  0  0  0  0  0  0  0  0  0
   -6.6330    2.4181   -2.5719 H   0  0  0  0  0  0  0  0  0  0  0  0
   -9.8859    1.7924   -0.7368 H   0  0  0  0  0  0  0  0  0  0  0  0
   -8.7774    2.1576    0.6048 H   0  0  0  0  0  0  0  0  0  0  0  0
   -9.2736    0.4771    0.3002 H   0  0  0  0  0  0  0  0  0  0  0  0
   -6.3351    2.3001    0.9330 H   0  0  0  0  0  0  0  0  0  0  0  0
   -3.3417    0.9655    2.7895 H   0  0  0  0  0  0  0  0  0  0  0  0
   -6.0107    2.3915    3.3238 H   0  0  0  0  0  0  0  0  0  0  0  0
   -5.5220    0.8138    3.9851 H   0  0  0  0  0  0  0  0  0  0  0  0
   -4.6269    2.2872    4.4359 H   0  0  0  0  0  0  0  0  0  0  0  0
   -2.8775    2.7564    1.1183 H   0  0  0  0  0  0  0  0  0  0  0  0
   -3.0790    3.4238    2.7586 H   0  0  0  0  0  0  0  0  0  0  0  0
   -4.3874    3.5833    1.5651 H   0  0  0  0  0  0  0  0  0  0  0  0
  1  2  1  0
  1 58  1  0
  1 59  1  0
  1 60  1  0
  2  3  2  0
  2  7  1  0
  3  4  1  0
  3 61  1  0
  4  5  2  0
  4 62  1  0
  5  6  1  0
  5 28  1  0
  6  7  2  0
  6  8  1  0
  7 63  1  0
  8  9  1  6
  8 15  1  0
  8 21  1  0
  9 10  2  0
  9 14  1  0
 10 11  1  0
 10 64  1  0
 11 12  2  0
 11 65  1  0
 12 13  1  0
 12 66  1  0
 13 14  2  0
 13 67  1  0
 14 68  1  0
 15 16  2  0
 15 20  1  0
 16 17  1  0
 16 69  1  0
 17 18  2  0
 17 70  1  0
 18 19  1  0
 18 71  1  0
 19 20  2  0
 19 72  1  0
 20 73  1  0
 21 22  1  0
 21 27  2  0
 22 23  2  0
 22 74  1  0
 23 24  1  0
 23 25  1  0
 24 75  1  0
 24 76  1  0
 24 77  1  0
 25 26  2  0
 25 78  1  0
 26 27  1  0
 26 79  1  0
 27 28  1  0
 28 29  1  0
 29 30  2  0
 29 34  1  0
 30 31  1  0
 30 80  1  0
 31 32  2  0
 31 81  1  0
 32 33  1  0
 32 42  1  0
 33 34  2  0
 33 35  1  0
 34 82  1  0
 35 36  2  0
 36 37  1  0
 36 41  1  0
 37 38  2  0
 37 83  1  0
 38 39  1  0
 38 84  1  0
 39 40  2  0
 39 85  1  0
 40 41  1  0
 40 86  1  0
 41 42  2  0
 42 43  1  0
 43 44  2  0
 43 54  1  0
 44 45  1  0
 44 48  1  0
 45 46  1  0
 45 47  1  0
 45 87  1  1
 46 88  1  0
 46 89  1  0
 46 90  1  0
 47 91  1  0
 47 92  1  0
 47 93  1  0
 48 49  2  0
 48 94  1  0
 49 50  1  0
 49 53  1  0
 50 51  1  0
 50 52  1  0
 50 95  1  6
 51 96  1  0
 51 97  1  0
 51 98  1  0
 52 99  1  0
 52100  1  0
 52101  1  0
 53 54  2  0
 53102  1  0
 54 55  1  0
 55 56  1  0
 55 57  1  0
 55103  1  1
 56104  1  0
 56105  1  0
 56106  1  0
 57107  1  0
 57108  1  0
 57109  1  0
M  CHG  2  35   1  42  -1
M  END

