
     RDKit          3D

 76 84  0  0  0  0  0  0  0  0999 V2000
    1.8169    1.1919   -8.3217 N   0  0  0  0  0  0  0  0  0  0  0  0
    1.2179    1.0678   -7.3354 C   0  0  0  0  0  0  0  0  0  0  0  0
    0.5096    0.9090   -6.0976 C   0  0  0  0  0  0  0  0  0  0  0  0
    1.2266    0.7098   -4.9104 C   0  0  0  0  0  0  0  0  0  0  0  0
    0.5907    0.5547   -3.6689 C   0  0  0  0  0  0  0  0  0  0  0  0
    1.4471    0.4251   -2.4541 C   0  0  0  0  0  0  0  0  0  0  0  0
    2.4653   -0.5423   -2.3950 C   0  0  0  0  0  0  0  0  0  0  0  0
    3.2974   -0.6388   -1.2779 C   0  0  0  0  0  0  0  0  0  0  0  0
    3.1468    0.2496   -0.2052 C   0  0  0  0  0  0  0  0  0  0  0  0
    4.0092    0.1635    0.9287 N   0  0  0  0  0  0  0  0  0  0  0  0
    3.5598   -0.4333    2.1252 C   0  0  0  0  0  0  0  0  0  0  0  0
    2.2711   -0.9639    2.2786 C   0  0  0  0  0  0  0  0  0  0  0  0
    1.8699   -1.5471    3.4881 C   0  0  0  0  0  0  0  0  0  0  0  0
    2.7534   -1.6149    4.5632 C   0  0  0  0  0  0  0  0  0  0  0  0
    4.0470   -1.0977    4.4215 C   0  0  0  0  0  0  0  0  0  0  0  0
    4.4457   -0.5185    3.2216 C   0  0  0  0  0  0  0  0  0  0  0  0
    5.7338   -0.0481    3.1470 O   0  0  0  0  0  0  0  0  0  0  0  0
    6.1485    0.5906    2.0041 C   0  0  0  0  0  0  0  0  0  0  0  0
    7.4360    1.1164    1.9979 C   0  0  0  0  0  0  0  0  0  0  0  0
    7.9229    1.7835    0.8670 C   0  0  0  0  0  0  0  0  0  0  0  0
    7.1016    1.9220   -0.2496 C   0  0  0  0  0  0  0  0  0  0  0  0
    5.8035    1.3950   -0.2434 C   0  0  0  0  0  0  0  0  0  0  0  0
    5.3073    0.7139    0.8770 C   0  0  0  0  0  0  0  0  0  0  0  0
    2.1441    1.2284   -0.2634 C   0  0  0  0  0  0  0  0  0  0  0  0
    1.2972    1.3067   -1.3683 C   0  0  0  0  0  0  0  0  0  0  0  0
   -0.8287    0.5741   -3.6198 C   0  0  0  0  0  0  0  0  0  0  0  0
   -1.6050    0.3266   -2.3701 C   0  0  0  0  0  0  0  0  0  0  0  0
   -1.3898   -0.8339   -1.6048 C   0  0  0  0  0  0  0  0  0  0  0  0
   -2.1642   -1.0980   -0.4758 C   0  0  0  0  0  0  0  0  0  0  0  0
   -3.1582   -0.1960   -0.0698 C   0  0  0  0  0  0  0  0  0  0  0  0
   -3.9474   -0.4624    1.0894 N   0  0  0  0  0  0  0  0  0  0  0  0
   -5.2402   -1.0116    0.9573 C   0  0  0  0  0  0  0  0  0  0  0  0
   -5.8020   -1.3519   -0.2812 C   0  0  0  0  0  0  0  0  0  0  0  0
   -7.0921   -1.8920   -0.3629 C   0  0  0  0  0  0  0  0  0  0  0  0
   -7.8394   -2.1077    0.7927 C   0  0  0  0  0  0  0  0  0  0  0  0
   -7.2863   -1.7833    2.0377 C   0  0  0  0  0  0  0  0  0  0  0  0
   -6.0068   -1.2446    2.1197 C   0  0  0  0  0  0  0  0  0  0  0  0
   -5.5248   -0.9518    3.3720 O   0  0  0  0  0  0  0  0  0  0  0  0
   -4.2397   -0.4859    3.5031 C   0  0  0  0  0  0  0  0  0  0  0  0
   -3.7690   -0.2673    4.7934 C   0  0  0  0  0  0  0  0  0  0  0  0
   -2.4739    0.2233    5.0015 C   0  0  0  0  0  0  0  0  0  0  0  0
   -1.6619    0.4939    3.9022 C   0  0  0  0  0  0  0  0  0  0  0  0
   -2.1356    0.2742    2.6018 C   0  0  0  0  0  0  0  0  0  0  0  0
   -3.4267   -0.2249    2.3784 C   0  0  0  0  0  0  0  0  0  0  0  0
   -3.3736    0.9670   -0.8204 C   0  0  0  0  0  0  0  0  0  0  0  0
   -2.6139    1.2179   -1.9647 C   0  0  0  0  0  0  0  0  0  0  0  0
   -1.5433    0.7900   -4.8083 C   0  0  0  0  0  0  0  0  0  0  0  0
   -0.9047    0.9611   -6.0438 C   0  0  0  0  0  0  0  0  0  0  0  0
   -1.6914    1.1718   -7.2252 C   0  0  0  0  0  0  0  0  0  0  0  0
   -2.3528    1.3418   -8.1636 N   0  0  0  0  0  0  0  0  0  0  0  0
    2.3169    0.7066   -4.9541 H   0  0  0  0  0  0  0  0  0  0  0  0
    2.5950   -1.2434   -3.2234 H   0  0  0  0  0  0  0  0  0  0  0  0
    4.0749   -1.4041   -1.2319 H   0  0  0  0  0  0  0  0  0  0  0  0
    1.5721   -0.9226    1.4432 H   0  0  0  0  0  0  0  0  0  0  0  0
    0.8567   -1.9450    3.5774 H   0  0  0  0  0  0  0  0  0  0  0  0
    2.4482   -2.0677    5.5088 H   0  0  0  0  0  0  0  0  0  0  0  0
    4.7731   -1.1356    5.2361 H   0  0  0  0  0  0  0  0  0  0  0  0
    8.0435    0.9906    2.8963 H   0  0  0  0  0  0  0  0  0  0  0  0
    8.9359    2.1912    0.8692 H   0  0  0  0  0  0  0  0  0  0  0  0
    7.4604    2.4445   -1.1392 H   0  0  0  0  0  0  0  0  0  0  0  0
    5.1687    1.5149   -1.1214 H   0  0  0  0  0  0  0  0  0  0  0  0
    2.0358    1.9310    0.5655 H   0  0  0  0  0  0  0  0  0  0  0  0
    0.5254    2.0782   -1.3996 H   0  0  0  0  0  0  0  0  0  0  0  0
   -0.6243   -1.5498   -1.9101 H   0  0  0  0  0  0  0  0  0  0  0  0
   -2.0057   -2.0120    0.1004 H   0  0  0  0  0  0  0  0  0  0  0  0
   -5.2252   -1.1927   -1.1924 H   0  0  0  0  0  0  0  0  0  0  0  0
   -7.5034   -2.1438   -1.3431 H   0  0  0  0  0  0  0  0  0  0  0  0
   -8.8458   -2.5279    0.7367 H   0  0  0  0  0  0  0  0  0  0  0  0
   -7.8349   -1.9411    2.9684 H   0  0  0  0  0  0  0  0  0  0  0  0
   -4.4403   -0.4872    5.6259 H   0  0  0  0  0  0  0  0  0  0  0  0
   -2.1120    0.3920    6.0178 H   0  0  0  0  0  0  0  0  0  0  0  0
   -0.6489    0.8774    4.0425 H   0  0  0  0  0  0  0  0  0  0  0  0
   -1.4925    0.4954    1.7499 H   0  0  0  0  0  0  0  0  0  0  0  0
   -4.1444    1.6721   -0.5026 H   0  0  0  0  0  0  0  0  0  0  0  0
   -2.7932    2.1303   -2.5389 H   0  0  0  0  0  0  0  0  0  0  0  0
   -2.6340    0.7952   -4.7803 H   0  0  0  0  0  0  0  0  0  0  0  0
  1  2  3  0
  2  3  1  0
  3  4  2  0
  3 48  1  0
  4  5  1  0
  4 51  1  0
  5  6  1  0
  5 26  2  0
  6  7  2  0
  6 25  1  0
  7  8  1  0
  7 52  1  0
  8  9  2  0
  8 53  1  0
  9 10  1  0
  9 24  1  0
 10 11  1  0
 10 23  1  0
 11 12  2  0
 11 16  1  0
 12 13  1  0
 12 54  1  0
 13 14  2  0
 13 55  1  0
 14 15  1  0
 14 56  1  0
 15 16  2  0
 15 57  1  0
 16 17  1  0
 17 18  1  0
 18 19  2  0
 18 23  1  0
 19 20  1  0
 19 58  1  0
 20 21  2  0
 20 59  1  0
 21 22  1  0
 21 60  1  0
 22 23  2  0
 22 61  1  0
 24 25  2  0
 24 62  1  0
 25 63  1  0
 26 27  1  0
 26 47  1  0
 27 28  2  0
 27 46  1  0
 28 29  1  0
 28 64  1  0
 29 30  2  0
 29 65  1  0
 30 31  1  0
 30 45  1  0
 31 32  1  0
 31 44  1  0
 32 33  2  0
 32 37  1  0
 33 34  1  0
 33 66  1  0
 34 35  2  0
 34 67  1  0
 35 36  1  0
 35 68  1  0
 36 37  2  0
 36 69  1  0
 37 38  1  0
 38 39  1  0
 39 40  2  0
 39 44  1  0
 40 41  1  0
 40 70  1  0
 41 42  2  0
 41 71  1  0
 42 43  1  0
 42 72  1  0
 43 44  2  0
 43 73  1  0
 45 46  2  0
 45 74  1  0
 46 75  1  0
 47 48  2  0
 47 76  1  0
 48 49  1  0
 49 50  3  0
M  END

