
     RDKit          3D

 38 39  0  0  0  0  0  0  0  0999 V2000
    0.7438   -0.5649   -0.6862 C   0  0  0  0  0  0  0  0  0  0  0  0
    2.1653   -0.2777   -0.1638 C   0  0  1  0  0  0  0  0  0  0  0  0
    2.8532   -1.4965    0.2639 N   0  0  0  0  0  0  0  0  0  0  0  0
    2.7013   -2.0023    1.5085 C   0  0  0  0  0  0  0  0  0  0  0  0
    1.9765   -1.5337    2.3727 O   0  0  0  0  0  0  0  0  0  0  0  0
    3.5219   -3.2567    1.8162 C   0  0  0  0  0  0  0  0  0  0  0  0
    4.2619   -3.6670    0.6852 O   0  0  0  0  0  0  0  0  0  0  0  0
    5.0727   -4.7572    0.7506 C   0  0  0  0  0  0  0  0  0  0  0  0
    5.2290   -5.5583    1.8903 C   0  0  0  0  0  0  0  0  0  0  0  0
    6.0883   -6.6628    1.8533 C   0  0  0  0  0  0  0  0  0  0  0  0
    6.7877   -6.9665    0.6861 C   0  0  0  0  0  0  0  0  0  0  0  0
    7.8611   -8.3489    0.6441 Cl  0  0  0  0  0  0  0  0  0  0  0  0
    6.6358   -6.1691   -0.4556 C   0  0  0  0  0  0  0  0  0  0  0  0
    5.7825   -5.0708   -0.4211 C   0  0  0  0  0  0  0  0  0  0  0  0
    3.0239    0.5198   -1.1374 C   0  0  0  0  0  0  0  0  0  0  0  0
    3.2540    1.8792   -0.8880 C   0  0  0  0  0  0  0  0  0  0  0  0
    4.0399    2.6685   -1.7313 C   0  0  0  0  0  0  0  0  0  0  0  0
    4.6214    2.0838   -2.8579 C   0  0  0  0  0  0  0  0  0  0  0  0
    4.4010    0.7351   -3.1352 C   0  0  0  0  0  0  0  0  0  0  0  0
    3.6021   -0.0610   -2.2951 C   0  0  0  0  0  0  0  0  0  0  0  0
    3.4555   -1.4326   -2.5697 N   0  0  0  0  0  0  0  0  0  0  0  0
    0.1662   -1.0974    0.0842 H   0  0  0  0  0  0  0  0  0  0  0  0
    0.7419   -1.1780   -1.6028 H   0  0  0  0  0  0  0  0  0  0  0  0
    0.2269    0.3790   -0.9175 H   0  0  0  0  0  0  0  0  0  0  0  0
    2.0412    0.3252    0.7480 H   0  0  0  0  0  0  0  0  0  0  0  0
    3.4936   -1.9591   -0.3768 H   0  0  0  0  0  0  0  0  0  0  0  0
    2.8175   -4.0410    2.1471 H   0  0  0  0  0  0  0  0  0  0  0  0
    4.1831   -3.0201    2.6695 H   0  0  0  0  0  0  0  0  0  0  0  0
    4.6911   -5.3381    2.8125 H   0  0  0  0  0  0  0  0  0  0  0  0
    6.2126   -7.2887    2.7386 H   0  0  0  0  0  0  0  0  0  0  0  0
    7.1882   -6.4130   -1.3647 H   0  0  0  0  0  0  0  0  0  0  0  0
    5.6492   -4.4335   -1.2977 H   0  0  0  0  0  0  0  0  0  0  0  0
    2.8093    2.3261    0.0059 H   0  0  0  0  0  0  0  0  0  0  0  0
    4.2019    3.7244   -1.5042 H   0  0  0  0  0  0  0  0  0  0  0  0
    5.2459    2.6776   -3.5303 H   0  0  0  0  0  0  0  0  0  0  0  0
    4.8515    0.2804   -4.0228 H   0  0  0  0  0  0  0  0  0  0  0  0
    3.8003   -1.7052   -3.4851 H   0  0  0  0  0  0  0  0  0  0  0  0
    2.5243   -1.8092   -2.4169 H   0  0  0  0  0  0  0  0  0  0  0  0
  1  2  1  0
  1 22  1  0
  1 23  1  0
  1 24  1  0
  2  3  1  0
  2 15  1  0
  2 25  1  1
  3  4  1  0
  3 26  1  0
  4  5  2  0
  4  6  1  0
  6  7  1  0
  6 27  1  0
  6 28  1  0
  7  8  1  0
  8  9  2  0
  8 14  1  0
  9 10  1  0
  9 29  1  0
 10 11  2  0
 10 30  1  0
 11 12  1  0
 11 13  1  0
 13 14  2  0
 13 31  1  0
 14 32  1  0
 15 16  2  0
 15 20  1  0
 16 17  1  0
 16 33  1  0
 17 18  2  0
 17 34  1  0
 18 19  1  0
 18 35  1  0
 19 20  2  0
 19 36  1  0
 20 21  1  0
 21 37  1  0
 21 38  1  0
M  END

