
     RDKit          3D

 56 58  0  0  0  0  0  0  0  0999 V2000
    1.2818   -3.4792    0.2857 O   0  0  0  0  0  0  0  0  0  0  0  0
    2.1913   -2.8752   -0.2164 C   0  0  0  0  0  0  0  0  0  0  0  0
    2.8819   -1.9691    0.5138 O   0  0  0  0  0  0  0  0  0  0  0  0
    2.6818   -3.0819   -1.6576 C   0  0  1  0  0  0  0  0  0  0  0  0
    1.7293   -4.0042   -2.4377 C   0  0  0  0  0  0  0  0  0  0  0  0
    0.4164   -3.2992   -2.8163 C   0  0  0  0  0  0  0  0  0  0  0  0
    0.6283   -1.9713   -3.5592 C   0  0  2  0  0  0  0  0  0  0  0  0
    1.1355   -2.2281   -4.9119 N   0  0  0  0  0  0  0  0  0  0  0  0
    1.0175   -1.2544   -5.8896 C   0  0  0  0  0  0  0  0  0  0  0  0
    0.6541   -0.1134   -5.6281 O   0  0  0  0  0  0  0  0  0  0  0  0
    1.3525   -1.6285   -7.1738 N   0  0  0  0  0  0  0  0  0  0  0  0
    1.3961   -0.5908   -8.2100 C   0  0  0  0  0  0  0  0  0  0  0  0
    1.9177   -1.3361   -9.4424 C   0  0  0  0  0  0  0  0  0  0  0  0
    2.7943   -2.4440   -8.8406 C   0  0  0  0  0  0  0  0  0  0  0  0
    2.0193   -2.8766   -7.5771 C   0  0  2  0  0  0  0  0  0  0  0  0
    1.0179   -4.0255   -7.8339 C   0  0  0  0  0  0  0  0  0  0  0  0
    1.6401   -5.4147   -8.0344 C   0  0  0  0  0  0  0  0  0  0  0  0
    2.2605   -6.0339   -6.7656 C   0  0  0  0  0  0  0  0  0  0  0  0
    2.8185   -7.4226   -6.9924 C   0  0  0  0  0  0  0  0  0  0  0  0
    4.1468   -7.6065   -7.4094 C   0  0  0  0  0  0  0  0  0  0  0  0
    4.6532   -8.8852   -7.6581 C   0  0  0  0  0  0  0  0  0  0  0  0
    3.8364  -10.0078   -7.4932 C   0  0  0  0  0  0  0  0  0  0  0  0
    2.5124   -9.8406   -7.0769 C   0  0  0  0  0  0  0  0  0  0  0  0
    2.0107   -8.5596   -6.8300 C   0  0  0  0  0  0  0  0  0  0  0  0
    1.5822   -1.0584   -2.7628 C   0  0  0  0  0  0  0  0  0  0  0  0
    2.9018   -1.7604   -2.4297 C   0  0  0  0  0  0  0  0  0  0  0  0
    3.5718   -1.5574   -0.0257 H   0  0  0  0  0  0  0  0  0  0  0  0
    3.6594   -3.5901   -1.5515 H   0  0  0  0  0  0  0  0  0  0  0  0
    1.5070   -4.8968   -1.8354 H   0  0  0  0  0  0  0  0  0  0  0  0
    2.2555   -4.3515   -3.3437 H   0  0  0  0  0  0  0  0  0  0  0  0
   -0.1479   -3.0916   -1.8944 H   0  0  0  0  0  0  0  0  0  0  0  0
   -0.2167   -3.9721   -3.4208 H   0  0  0  0  0  0  0  0  0  0  0  0
   -0.3367   -1.4452   -3.6509 H   0  0  0  0  0  0  0  0  0  0  0  0
    1.1834   -3.1960   -5.2023 H   0  0  0  0  0  0  0  0  0  0  0  0
    2.0732    0.2270   -7.9040 H   0  0  0  0  0  0  0  0  0  0  0  0
    0.4042   -0.1379   -8.3595 H   0  0  0  0  0  0  0  0  0  0  0  0
    2.4682   -0.6776  -10.1302 H   0  0  0  0  0  0  0  0  0  0  0  0
    1.0806   -1.7746  -10.0102 H   0  0  0  0  0  0  0  0  0  0  0  0
    3.7742   -2.0316   -8.5493 H   0  0  0  0  0  0  0  0  0  0  0  0
    2.9817   -3.2783   -9.5328 H   0  0  0  0  0  0  0  0  0  0  0  0
    2.7243   -3.1807   -6.7842 H   0  0  0  0  0  0  0  0  0  0  0  0
    0.4118   -3.7644   -8.7180 H   0  0  0  0  0  0  0  0  0  0  0  0
    0.3012   -4.0670   -6.9944 H   0  0  0  0  0  0  0  0  0  0  0  0
    2.4066   -5.3789   -8.8283 H   0  0  0  0  0  0  0  0  0  0  0  0
    0.8619   -6.1007   -8.4092 H   0  0  0  0  0  0  0  0  0  0  0  0
    1.4895   -6.0747   -5.9760 H   0  0  0  0  0  0  0  0  0  0  0  0
    3.0651   -5.3824   -6.3847 H   0  0  0  0  0  0  0  0  0  0  0  0
    4.7961   -6.7346   -7.5360 H   0  0  0  0  0  0  0  0  0  0  0  0
    5.6916   -9.0056   -7.9780 H   0  0  0  0  0  0  0  0  0  0  0  0
    4.2314  -11.0089   -7.6837 H   0  0  0  0  0  0  0  0  0  0  0  0
    1.8672  -10.7123   -6.9392 H   0  0  0  0  0  0  0  0  0  0  0  0
    0.9744   -8.4401   -6.4991 H   0  0  0  0  0  0  0  0  0  0  0  0
    1.0717   -0.7530   -1.8320 H   0  0  0  0  0  0  0  0  0  0  0  0
    1.7585   -0.1420   -3.3435 H   0  0  0  0  0  0  0  0  0  0  0  0
    3.5741   -1.0723   -1.8852 H   0  0  0  0  0  0  0  0  0  0  0  0
    3.4314   -1.9983   -3.3668 H   0  0  0  0  0  0  0  0  0  0  0  0
  1  2  2  0
  2  3  1  0
  2  4  1  0
  3 27  1  0
  4  5  1  0
  4 26  1  0
  4 28  1  1
  5  6  1  0
  5 29  1  0
  5 30  1  0
  6  7  1  0
  6 31  1  0
  6 32  1  0
  7  8  1  0
  7 25  1  0
  7 33  1  6
  8  9  1  0
  8 34  1  0
  9 10  2  0
  9 11  1  0
 11 12  1  0
 11 15  1  0
 12 13  1  0
 12 35  1  0
 12 36  1  0
 13 14  1  0
 13 37  1  0
 13 38  1  0
 14 15  1  0
 14 39  1  0
 14 40  1  0
 15 16  1  0
 15 41  1  1
 16 17  1  0
 16 42  1  0
 16 43  1  0
 17 18  1  0
 17 44  1  0
 17 45  1  0
 18 19  1  0
 18 46  1  0
 18 47  1  0
 19 20  2  0
 19 24  1  0
 20 21  1  0
 20 48  1  0
 21 22  2  0
 21 49  1  0
 22 23  1  0
 22 50  1  0
 23 24  2  0
 23 51  1  0
 24 52  1  0
 25 26  1  0
 25 53  1  0
 25 54  1  0
 26 55  1  0
 26 56  1  0
M  END

