
     RDKit          3D

 45 46  0  0  0  0  0  0  0  0999 V2000
    0.7893   -0.2900   -2.0153 C   0  0  0  0  0  0  0  0  0  0  0  0
    2.2986   -0.1603   -1.8054 C   0  0  0  0  0  0  0  0  0  0  0  0
    3.0008   -1.5098   -1.6300 C   0  0  0  0  0  0  0  0  0  0  0  0
    4.5012   -1.3762   -1.4216 C   0  0  0  0  0  0  0  0  0  0  0  0
    5.0460   -2.6784   -1.2720 O   0  0  0  0  0  0  0  0  0  0  0  0
    6.3758   -2.8398   -1.0701 C   0  0  0  0  0  0  0  0  0  0  0  0
    7.3046   -1.7809   -0.9936 C   0  0  0  0  0  0  0  0  0  0  0  0
    8.6507   -2.0597   -0.7822 C   0  0  0  0  0  0  0  0  0  0  0  0
    9.1230   -3.3768   -0.6384 C   0  0  0  0  0  0  0  0  0  0  0  0
   10.5279   -3.6854   -0.4121 C   0  0  0  0  0  0  0  0  0  0  0  0
   11.3307   -2.6019   -0.3371 O   0  0  0  0  0  0  0  0  0  0  0  0
   12.7518   -2.7017   -0.5103 C   0  0  0  0  0  0  0  0  0  0  0  0
   13.3244   -1.2941   -0.5084 C   0  0  0  0  0  0  0  0  0  0  0  0
   13.1648   -0.5516    0.8222 C   0  0  0  0  0  0  0  0  0  0  0  0
   13.7357    0.8664    0.7955 C   0  0  0  0  0  0  0  0  0  0  0  0
   10.9074   -4.9982   -0.2719 C   0  0  0  0  0  0  0  0  0  0  0  0
   12.1659   -5.4389   -0.0299 O   0  0  0  0  0  0  0  0  0  0  0  0
    9.9359   -6.0875   -0.3774 C   0  0  0  0  0  0  0  0  0  0  0  0
   10.3037   -7.2592   -0.2618 O   0  0  0  0  0  0  0  0  0  0  0  0
    8.6259   -5.7338   -0.5934 N   0  0  0  0  0  0  0  0  0  0  0  0
    7.9673   -6.5045   -0.6549 H   0  0  0  0  0  0  0  0  0  0  0  0
    8.1752   -4.4315   -0.7219 C   0  0  0  0  0  0  0  0  0  0  0  0
    6.8194   -4.1595   -0.9352 C   0  0  0  0  0  0  0  0  0  0  0  0
    0.3136    0.6958   -2.1379 H   0  0  0  0  0  0  0  0  0  0  0  0
    0.3074   -0.7887   -1.1580 H   0  0  0  0  0  0  0  0  0  0  0  0
    0.5599   -0.8855   -2.9145 H   0  0  0  0  0  0  0  0  0  0  0  0
    2.4936    0.4726   -0.9205 H   0  0  0  0  0  0  0  0  0  0  0  0
    2.7441    0.3763   -2.6630 H   0  0  0  0  0  0  0  0  0  0  0  0
    2.8251   -2.1475   -2.5138 H   0  0  0  0  0  0  0  0  0  0  0  0
    2.5741   -2.0511   -0.7677 H   0  0  0  0  0  0  0  0  0  0  0  0
    4.7159   -0.7685   -0.5218 H   0  0  0  0  0  0  0  0  0  0  0  0
    4.9693   -0.8651   -2.2847 H   0  0  0  0  0  0  0  0  0  0  0  0
    6.9841   -0.7451   -1.0985 H   0  0  0  0  0  0  0  0  0  0  0  0
    9.3721   -1.2445   -0.7246 H   0  0  0  0  0  0  0  0  0  0  0  0
   12.9637   -3.2138   -1.4641 H   0  0  0  0  0  0  0  0  0  0  0  0
   13.1857   -3.3099    0.2972 H   0  0  0  0  0  0  0  0  0  0  0  0
   12.8515   -0.7157   -1.3223 H   0  0  0  0  0  0  0  0  0  0  0  0
   14.3959   -1.3731   -0.7663 H   0  0  0  0  0  0  0  0  0  0  0  0
   13.6575   -1.1362    1.6205 H   0  0  0  0  0  0  0  0  0  0  0  0
   12.0949   -0.5198    1.0878 H   0  0  0  0  0  0  0  0  0  0  0  0
   14.8141    0.8631    0.5623 H   0  0  0  0  0  0  0  0  0  0  0  0
   13.6077    1.3713    1.7662 H   0  0  0  0  0  0  0  0  0  0  0  0
   13.2367    1.4853    0.0309 H   0  0  0  0  0  0  0  0  0  0  0  0
   12.0639   -6.4152   -0.0088 H   0  0  0  0  0  0  0  0  0  0  0  0
    6.0884   -4.9679   -1.0003 H   0  0  0  0  0  0  0  0  0  0  0  0
  1  2  1  0
  1 24  1  0
  1 25  1  0
  1 26  1  0
  2  3  1  0
  2 27  1  0
  2 28  1  0
  3  4  1  0
  3 29  1  0
  3 30  1  0
  4  5  1  0
  4 31  1  0
  4 32  1  0
  5  6  1  0
  6  7  2  0
  6 23  1  0
  7  8  1  0
  7 33  1  0
  8  9  2  0
  8 34  1  0
  9 10  1  0
  9 22  1  0
 10 11  1  0
 10 16  2  0
 11 12  1  0
 12 13  1  0
 12 35  1  0
 12 36  1  0
 13 14  1  0
 13 37  1  0
 13 38  1  0
 14 15  1  0
 14 39  1  0
 14 40  1  0
 15 41  1  0
 15 42  1  0
 15 43  1  0
 16 17  1  0
 16 18  1  0
 17 44  1  0
 18 19  2  0
 18 20  1  0
 20 21  1  0
 20 22  1  0
 22 23  2  0
 23 45  1  0
M  END

