
     RDKit          3D

 49 51  0  0  0  0  0  0  0  0999 V2000
    4.5402   -6.2080   -3.5587 C   0  0  0  0  0  0  0  0  0  0  0  0
    4.1104   -6.1642   -2.0742 C   0  0  1  0  0  0  0  0  0  0  0  0
    2.5779   -6.0586   -1.9805 C   0  0  0  0  0  0  0  0  0  0  0  0
    4.5669   -7.4562   -1.3762 C   0  0  0  0  0  0  0  0  0  0  0  0
    4.7288   -5.0538   -1.3269 N   0  0  0  0  0  0  0  0  0  0  0  0
    4.5256   -3.6896   -1.7807 C   0  0  0  0  0  0  0  0  0  0  0  0
    5.2011   -2.6840   -0.8297 C   0  0  0  0  0  0  0  0  0  0  0  0
    6.7106   -2.7979   -0.7764 C   0  0  0  0  0  0  0  0  0  0  0  0
    7.3496   -3.5655    0.2107 C   0  0  0  0  0  0  0  0  0  0  0  0
    8.7419   -3.6948    0.2197 C   0  0  0  0  0  0  0  0  0  0  0  0
    9.5200   -3.0584   -0.7453 C   0  0  0  0  0  0  0  0  0  0  0  0
    8.9038   -2.2720   -1.7468 C   0  0  0  0  0  0  0  0  0  0  0  0
    7.5047   -2.1618   -1.7425 C   0  0  0  0  0  0  0  0  0  0  0  0
    9.7024   -1.6603   -2.7093 N   0  0  0  0  0  0  0  0  0  0  0  0
   11.1120   -1.5225   -2.4170 C   0  0  0  0  0  0  0  0  0  0  0  0
   11.6231   -2.8568   -1.8486 C   0  0  1  0  0  0  0  0  0  0  0  0
   13.0962   -2.8113   -1.5055 C   0  0  0  0  0  0  0  0  0  0  0  0
   13.5304   -2.4621   -0.2191 C   0  0  0  0  0  0  0  0  0  0  0  0
   14.8962   -2.3780    0.0664 C   0  0  0  0  0  0  0  0  0  0  0  0
   15.8428   -2.6381   -0.9290 C   0  0  0  0  0  0  0  0  0  0  0  0
   15.4166   -2.9900   -2.2135 C   0  0  0  0  0  0  0  0  0  0  0  0
   14.0515   -3.0792   -2.4971 C   0  0  0  0  0  0  0  0  0  0  0  0
   10.8847   -3.1902   -0.6775 O   0  0  0  0  0  0  0  0  0  0  0  0
    4.1086   -7.0819   -4.0735 H   0  0  0  0  0  0  0  0  0  0  0  0
    5.6377   -6.2735   -3.6451 H   0  0  0  0  0  0  0  0  0  0  0  0
    4.2120   -5.3092   -4.1042 H   0  0  0  0  0  0  0  0  0  0  0  0
    2.1011   -6.9467   -2.4245 H   0  0  0  0  0  0  0  0  0  0  0  0
    2.1915   -5.1781   -2.5177 H   0  0  0  0  0  0  0  0  0  0  0  0
    2.2646   -5.9819   -0.9278 H   0  0  0  0  0  0  0  0  0  0  0  0
    4.1267   -8.3452   -1.8544 H   0  0  0  0  0  0  0  0  0  0  0  0
    4.2725   -7.4425   -0.3157 H   0  0  0  0  0  0  0  0  0  0  0  0
    5.6644   -7.5609   -1.4221 H   0  0  0  0  0  0  0  0  0  0  0  0
    5.7295   -5.2298   -1.2361 H   0  0  0  0  0  0  0  0  0  0  0  0
    3.4447   -3.4719   -1.7941 H   0  0  0  0  0  0  0  0  0  0  0  0
    4.8944   -3.4959   -2.8132 H   0  0  0  0  0  0  0  0  0  0  0  0
    4.7831   -2.8318    0.1788 H   0  0  0  0  0  0  0  0  0  0  0  0
    4.9202   -1.6677   -1.1535 H   0  0  0  0  0  0  0  0  0  0  0  0
    6.7545   -4.0644    0.9793 H   0  0  0  0  0  0  0  0  0  0  0  0
    9.2524   -4.2879    0.9818 H   0  0  0  0  0  0  0  0  0  0  0  0
    7.0285   -1.5509   -2.5166 H   0  0  0  0  0  0  0  0  0  0  0  0
    9.2696   -0.9042   -3.2265 H   0  0  0  0  0  0  0  0  0  0  0  0
   11.3359   -0.7252   -1.6779 H   0  0  0  0  0  0  0  0  0  0  0  0
   11.6628   -1.2846   -3.3401 H   0  0  0  0  0  0  0  0  0  0  0  0
   11.4488   -3.6347   -2.6161 H   0  0  0  0  0  0  0  0  0  0  0  0
   12.7887   -2.2734    0.5588 H   0  0  0  0  0  0  0  0  0  0  0  0
   15.2228   -2.1100    1.0746 H   0  0  0  0  0  0  0  0  0  0  0  0
   16.9103   -2.5733   -0.7032 H   0  0  0  0  0  0  0  0  0  0  0  0
   16.1496   -3.2047   -2.9954 H   0  0  0  0  0  0  0  0  0  0  0  0
   13.7243   -3.3686   -3.5005 H   0  0  0  0  0  0  0  0  0  0  0  0
  1  2  1  0
  1 24  1  0
  1 25  1  0
  1 26  1  0
  2  3  1  0
  2  4  1  0
  2  5  1  1
  3 27  1  0
  3 28  1  0
  3 29  1  0
  4 30  1  0
  4 31  1  0
  4 32  1  0
  5  6  1  0
  5 33  1  0
  6  7  1  0
  6 34  1  0
  6 35  1  0
  7  8  1  0
  7 36  1  0
  7 37  1  0
  8  9  2  0
  8 13  1  0
  9 10  1  0
  9 38  1  0
 10 11  2  0
 10 39  1  0
 11 12  1  0
 11 23  1  0
 12 13  2  0
 12 14  1  0
 13 40  1  0
 14 15  1  0
 14 41  1  0
 15 16  1  0
 15 42  1  0
 15 43  1  0
 16 17  1  0
 16 23  1  0
 16 44  1  6
 17 18  2  0
 17 22  1  0
 18 19  1  0
 18 45  1  0
 19 20  2  0
 19 46  1  0
 20 21  1  0
 20 47  1  0
 21 22  2  0
 21 48  1  0
 22 49  1  0
M  END

