
     RDKit          3D

 45 48  0  0  0  0  0  0  0  0999 V2000
    0.9631    0.0049    0.0567 C   0  0  0  0  0  0  0  0  0  0  0  0
    2.4579    0.1133    0.0013 C   0  0  0  0  0  0  0  0  0  0  0  0
    3.1217    1.3195    0.0069 C   0  0  0  0  0  0  0  0  0  0  0  0
    4.5473    1.4150   -0.0689 C   0  0  0  0  0  0  0  0  0  0  0  0
    5.1553    2.4766   -0.1978 O   0  0  0  0  0  0  0  0  0  0  0  0
    5.2303    0.1437    0.0010 N   0  0  0  0  0  0  0  0  0  0  0  0
    6.6345   -0.1513    0.0921 C   0  0  0  0  0  0  0  0  0  0  0  0
    7.7754    0.8256    0.3664 C   0  0  0  0  0  0  0  0  0  0  0  0
    8.7537    0.4089    0.9937 O   0  0  0  0  0  0  0  0  0  0  0  0
    7.6996    2.0697   -0.1410 N   0  0  0  0  0  0  0  0  0  0  0  0
    8.6439    3.1100   -0.0461 C   0  0  0  0  0  0  0  0  0  0  0  0
    9.9678    2.9503    0.3996 C   0  0  0  0  0  0  0  0  0  0  0  0
   10.8329    4.0471    0.4266 C   0  0  0  0  0  0  0  0  0  0  0  0
   10.3894    5.3065    0.0165 C   0  0  0  0  0  0  0  0  0  0  0  0
   11.7154    6.9667    0.0647 I   0  0  0  0  0  0  0  0  0  0  0  0
    9.0733    5.4793   -0.4248 C   0  0  0  0  0  0  0  0  0  0  0  0
    8.2102    4.3864   -0.4543 C   0  0  0  0  0  0  0  0  0  0  0  0
    6.8676   -1.5072   -0.0186 C   0  0  0  0  0  0  0  0  0  0  0  0
    8.0410   -2.4796   -0.1061 C   0  0  0  0  0  0  0  0  0  0  0  0
    7.7759   -3.5743   -0.5949 O   0  0  0  0  0  0  0  0  0  0  0  0
    9.2403   -2.1038    0.3820 N   0  0  0  0  0  0  0  0  0  0  0  0
   10.4383   -2.8433    0.4082 C   0  0  0  0  0  0  0  0  0  0  0  0
   10.5750   -4.1378   -0.1258 C   0  0  0  0  0  0  0  0  0  0  0  0
   11.8114   -4.7846   -0.0498 C   0  0  0  0  0  0  0  0  0  0  0  0
   12.9151   -4.1698    0.5468 C   0  0  0  0  0  0  0  0  0  0  0  0
   12.7764   -2.8825    1.0770 C   0  0  0  0  0  0  0  0  0  0  0  0
   11.5510   -2.2229    1.0093 C   0  0  0  0  0  0  0  0  0  0  0  0
    5.4020   -2.4393   -0.2305 S   0  0  0  0  0  0  0  0  0  0  0  0
    4.4394   -1.0043   -0.0806 C   0  0  0  0  0  0  0  0  0  0  0  0
    3.1418   -1.0586   -0.0776 N   0  0  0  0  0  0  0  0  0  0  0  0
    0.4785    0.9889    0.1054 H   0  0  0  0  0  0  0  0  0  0  0  0
    0.6662   -0.5888    0.9365 H   0  0  0  0  0  0  0  0  0  0  0  0
    0.5956   -0.5390   -0.8283 H   0  0  0  0  0  0  0  0  0  0  0  0
    2.5931    2.2726    0.0175 H   0  0  0  0  0  0  0  0  0  0  0  0
    6.7434    2.3579   -0.4187 H   0  0  0  0  0  0  0  0  0  0  0  0
   10.3141    1.9750    0.7298 H   0  0  0  0  0  0  0  0  0  0  0  0
   11.8582    3.9077    0.7739 H   0  0  0  0  0  0  0  0  0  0  0  0
    8.7155    6.4595   -0.7442 H   0  0  0  0  0  0  0  0  0  0  0  0
    7.1800    4.5213   -0.7935 H   0  0  0  0  0  0  0  0  0  0  0  0
    9.2554   -1.1599    0.7920 H   0  0  0  0  0  0  0  0  0  0  0  0
    9.7172   -4.6195   -0.5880 H   0  0  0  0  0  0  0  0  0  0  0  0
   11.9075   -5.7903   -0.4673 H   0  0  0  0  0  0  0  0  0  0  0  0
   13.8757   -4.6878    0.5992 H   0  0  0  0  0  0  0  0  0  0  0  0
   13.6288   -2.3859    1.5475 H   0  0  0  0  0  0  0  0  0  0  0  0
   11.4451   -1.2171    1.4245 H   0  0  0  0  0  0  0  0  0  0  0  0
  1  2  1  0
  1 31  1  0
  1 32  1  0
  1 33  1  0
  2  3  2  0
  2 30  1  0
  3  4  1  0
  3 34  1  0
  4  5  2  0
  4  6  1  0
  6  7  1  0
  6 29  1  0
  7  8  1  0
  7 18  2  0
  8  9  2  0
  8 10  1  0
 10 11  1  0
 10 35  1  0
 11 12  2  0
 11 17  1  0
 12 13  1  0
 12 36  1  0
 13 14  2  0
 13 37  1  0
 14 15  1  0
 14 16  1  0
 16 17  2  0
 16 38  1  0
 17 39  1  0
 18 19  1  0
 18 28  1  0
 19 20  2  0
 19 21  1  0
 21 22  1  0
 21 40  1  0
 22 23  2  0
 22 27  1  0
 23 24  1  0
 23 41  1  0
 24 25  2  0
 24 42  1  0
 25 26  1  0
 25 43  1  0
 26 27  2  0
 26 44  1  0
 27 45  1  0
 28 29  1  0
 29 30  2  0
M  END

