
     RDKit          3D

 53 57  0  0  0  0  0  0  0  0999 V2000
    7.1281    3.9222   -0.1696 C   0  0  0  0  0  0  0  0  0  0  0  0
    6.4427    2.5815   -0.0629 C   0  0  0  0  0  0  0  0  0  0  0  0
    5.0557    2.5082    0.2073 C   0  0  0  0  0  0  0  0  0  0  0  0
    4.3951    1.2914    0.3102 C   0  0  0  0  0  0  0  0  0  0  0  0
    5.1114    0.0928    0.1436 C   0  0  0  0  0  0  0  0  0  0  0  0
    4.5095   -1.1439    0.2390 N   0  0  0  0  0  0  0  0  0  0  0  0
    3.5189   -1.1999    0.4599 H   0  0  0  0  0  0  0  0  0  0  0  0
    5.1186   -2.3823    0.1050 C   0  0  0  0  0  0  0  0  0  0  0  0
    4.4400   -3.3959    0.2757 O   0  0  0  0  0  0  0  0  0  0  0  0
    6.5579   -2.3391   -0.2167 C   0  0  0  0  0  0  0  0  0  0  0  0
    7.3530   -3.5657   -0.3748 C   0  0  0  0  0  0  0  0  0  0  0  0
    8.7175   -3.4896   -0.2282 N   0  0  0  0  0  0  0  0  0  0  0  0
    9.1892   -4.7030   -0.4397 C   0  0  0  0  0  0  0  0  0  0  0  0
   10.5344   -5.1814   -0.4151 C   0  0  0  0  0  0  0  0  0  0  0  0
   11.6360   -4.1993   -0.1389 C   0  0  0  0  0  0  0  0  0  0  0  0
   10.7402   -6.5268   -0.6395 C   0  0  0  0  0  0  0  0  0  0  0  0
    9.6475   -7.4176   -0.8732 C   0  0  0  0  0  0  0  0  0  0  0  0
    8.3636   -6.9494   -0.9045 C   0  0  0  0  0  0  0  0  0  0  0  0
    8.1463   -5.6038   -0.7149 N   0  0  0  0  0  0  0  0  0  0  0  0
    6.9648   -4.8794   -0.6981 C   0  0  0  0  0  0  0  0  0  0  0  0
    5.7528   -5.4951   -0.9701 N   0  0  0  0  0  0  0  0  0  0  0  0
    5.4665   -5.8682   -2.3570 C   0  0  0  0  0  0  0  0  0  0  0  0
    4.1109   -6.5613   -2.4715 C   0  0  1  0  0  0  0  0  0  0  0  0
    3.9134   -7.8146   -1.6037 C   0  0  0  0  0  0  0  0  0  0  0  0
    2.4094   -7.7734   -1.3082 C   0  0  0  0  0  0  0  0  0  0  0  0
    2.1613   -6.2663   -1.1846 C   0  0  0  0  0  0  0  0  0  0  0  0
    3.0889   -5.6454   -2.0698 O   0  0  0  0  0  0  0  0  0  0  0  0
    7.1843   -1.1179   -0.2958 C   0  0  0  0  0  0  0  0  0  0  0  0
    6.5004    0.1299   -0.1283 C   0  0  0  0  0  0  0  0  0  0  0  0
    7.1388    1.3877   -0.2255 C   0  0  0  0  0  0  0  0  0  0  0  0
    7.0104    4.5090    0.7569 H   0  0  0  0  0  0  0  0  0  0  0  0
    6.7029    4.5270   -0.9884 H   0  0  0  0  0  0  0  0  0  0  0  0
    8.2054    3.8106   -0.3610 H   0  0  0  0  0  0  0  0  0  0  0  0
    4.4872    3.4333    0.3394 H   0  0  0  0  0  0  0  0  0  0  0  0
    3.3226    1.2586    0.5204 H   0  0  0  0  0  0  0  0  0  0  0  0
   11.6487   -3.4006   -0.8987 H   0  0  0  0  0  0  0  0  0  0  0  0
   12.6187   -4.6923   -0.1275 H   0  0  0  0  0  0  0  0  0  0  0  0
   11.4772   -3.6984    0.8299 H   0  0  0  0  0  0  0  0  0  0  0  0
   11.7581   -6.9244   -0.6279 H   0  0  0  0  0  0  0  0  0  0  0  0
    9.8274   -8.4842   -1.0174 H   0  0  0  0  0  0  0  0  0  0  0  0
    7.4786   -7.5686   -1.0437 H   0  0  0  0  0  0  0  0  0  0  0  0
    4.9971   -4.9199   -0.5798 H   0  0  0  0  0  0  0  0  0  0  0  0
    6.2457   -6.5493   -2.7400 H   0  0  0  0  0  0  0  0  0  0  0  0
    5.4596   -4.9857   -3.0276 H   0  0  0  0  0  0  0  0  0  0  0  0
    3.9592   -6.8140   -3.5410 H   0  0  0  0  0  0  0  0  0  0  0  0
    4.4927   -7.7096   -0.6731 H   0  0  0  0  0  0  0  0  0  0  0  0
    4.2363   -8.7344   -2.1148 H   0  0  0  0  0  0  0  0  0  0  0  0
    2.1240   -8.3304   -0.4028 H   0  0  0  0  0  0  0  0  0  0  0  0
    1.8375   -8.1888   -2.1549 H   0  0  0  0  0  0  0  0  0  0  0  0
    2.3376   -5.9114   -0.1514 H   0  0  0  0  0  0  0  0  0  0  0  0
    1.1387   -5.9706   -1.4735 H   0  0  0  0  0  0  0  0  0  0  0  0
    8.2586   -1.1132   -0.4922 H   0  0  0  0  0  0  0  0  0  0  0  0
    8.2121    1.4063   -0.4349 H   0  0  0  0  0  0  0  0  0  0  0  0
  1  2  1  0
  1 31  1  0
  1 32  1  0
  1 33  1  0
  2  3  2  0
  2 30  1  0
  3  4  1  0
  3 34  1  0
  4  5  2  0
  4 35  1  0
  5  6  1  0
  5 29  1  0
  6  7  1  0
  6  8  1  0
  8  9  2  0
  8 10  1  0
 10 11  1  0
 10 28  2  0
 11 12  1  0
 11 20  2  0
 12 13  2  0
 13 14  1  0
 13 19  1  0
 14 15  1  0
 14 16  2  0
 15 36  1  0
 15 37  1  0
 15 38  1  0
 16 17  1  0
 16 39  1  0
 17 18  2  0
 17 40  1  0
 18 19  1  0
 18 41  1  0
 19 20  1  0
 20 21  1  0
 21 22  1  0
 21 42  1  0
 22 23  1  0
 22 43  1  0
 22 44  1  0
 23 24  1  0
 23 27  1  0
 23 45  1  6
 24 25  1  0
 24 46  1  0
 24 47  1  0
 25 26  1  0
 25 48  1  0
 25 49  1  0
 26 27  1  0
 26 50  1  0
 26 51  1  0
 28 29  1  0
 28 52  1  0
 29 30  2  0
 30 53  1  0
M  END

