
     RDKit          3D

 42 43  0  0  0  0  0  0  0  0999 V2000
    3.4991   -0.8012    0.6206 C   0  0  0  0  0  0  0  0  0  0  0  0
    2.7082    0.4913    0.4192 C   0  0  0  0  0  0  0  0  0  0  0  0
    3.1498    1.2991   -0.8080 C   0  0  1  0  0  0  0  0  0  0  0  0
    2.2377    2.3886   -0.9322 O   0  0  0  0  0  0  0  0  0  0  0  0
    2.2973    3.3261   -1.9372 C   0  0  0  0  0  0  0  0  0  0  0  0
    1.8748    4.6065   -1.5370 C   0  0  0  0  0  0  0  0  0  0  0  0
    1.8428    5.6736   -2.4310 C   0  0  0  0  0  0  0  0  0  0  0  0
    2.2444    5.4717   -3.7535 C   0  0  0  0  0  0  0  0  0  0  0  0
    2.6364    4.1954   -4.1551 C   0  0  0  0  0  0  0  0  0  0  0  0
    2.6618    3.0889   -3.2848 C   0  0  0  0  0  0  0  0  0  0  0  0
    3.0100    1.7326   -3.8578 C   0  0  0  0  0  0  0  0  0  0  0  0
    4.6381    1.7073   -0.7696 C   0  0  0  0  0  0  0  0  0  0  0  0
    5.4378    1.0708   -1.4426 O   0  0  0  0  0  0  0  0  0  0  0  0
    5.0546    2.7337    0.0267 N   0  0  0  0  0  0  0  0  0  0  0  0
    4.3058    3.6518    0.8790 C   0  0  0  0  0  0  0  0  0  0  0  0
    5.1724    4.1716    2.0066 C   0  0  0  0  0  0  0  0  0  0  0  0
    5.6975    5.4721    1.9399 C   0  0  0  0  0  0  0  0  0  0  0  0
    6.5182    5.9876    2.9457 C   0  0  0  0  0  0  0  0  0  0  0  0
    6.8337    5.1969    4.0527 C   0  0  0  0  0  0  0  0  0  0  0  0
    6.3267    3.8992    4.1495 C   0  0  0  0  0  0  0  0  0  0  0  0
    5.5079    3.3987    3.1337 C   0  0  0  0  0  0  0  0  0  0  0  0
    4.8875    1.7675    3.3085 Cl  0  0  0  0  0  0  0  0  0  0  0  0
    3.0967   -1.3678    1.4745 H   0  0  0  0  0  0  0  0  0  0  0  0
    4.5629   -0.6028    0.8224 H   0  0  0  0  0  0  0  0  0  0  0  0
    3.4481   -1.4507   -0.2682 H   0  0  0  0  0  0  0  0  0  0  0  0
    2.7714    1.1163    1.3234 H   0  0  0  0  0  0  0  0  0  0  0  0
    1.6384    0.2690    0.2705 H   0  0  0  0  0  0  0  0  0  0  0  0
    3.0886    0.6361   -1.6791 H   0  0  0  0  0  0  0  0  0  0  0  0
    1.5587    4.7318   -0.4994 H   0  0  0  0  0  0  0  0  0  0  0  0
    1.5077    6.6574   -2.0926 H   0  0  0  0  0  0  0  0  0  0  0  0
    2.2363    6.2947   -4.4719 H   0  0  0  0  0  0  0  0  0  0  0  0
    2.9212    4.0288   -5.1979 H   0  0  0  0  0  0  0  0  0  0  0  0
    3.1051    1.8053   -4.9508 H   0  0  0  0  0  0  0  0  0  0  0  0
    2.2228    0.9904   -3.6476 H   0  0  0  0  0  0  0  0  0  0  0  0
    3.9592    1.3330   -3.4669 H   0  0  0  0  0  0  0  0  0  0  0  0
    6.0480    2.9233   -0.0804 H   0  0  0  0  0  0  0  0  0  0  0  0
    3.4227    3.1390    1.2793 H   0  0  0  0  0  0  0  0  0  0  0  0
    3.9399    4.5133    0.2964 H   0  0  0  0  0  0  0  0  0  0  0  0
    5.4476    6.0911    1.0737 H   0  0  0  0  0  0  0  0  0  0  0  0
    6.9090    7.0044    2.8638 H   0  0  0  0  0  0  0  0  0  0  0  0
    7.4742    5.5864    4.8478 H   0  0  0  0  0  0  0  0  0  0  0  0
    6.5582    3.2680    5.0091 H   0  0  0  0  0  0  0  0  0  0  0  0
  1  2  1  0
  1 23  1  0
  1 24  1  0
  1 25  1  0
  2  3  1  0
  2 26  1  0
  2 27  1  0
  3  4  1  0
  3 12  1  0
  3 28  1  6
  4  5  1  0
  5  6  2  0
  5 10  1  0
  6  7  1  0
  6 29  1  0
  7  8  2  0
  7 30  1  0
  8  9  1  0
  8 31  1  0
  9 10  2  0
  9 32  1  0
 10 11  1  0
 11 33  1  0
 11 34  1  0
 11 35  1  0
 12 13  2  0
 12 14  1  0
 14 15  1  0
 14 36  1  0
 15 16  1  0
 15 37  1  0
 15 38  1  0
 16 17  2  0
 16 21  1  0
 17 18  1  0
 17 39  1  0
 18 19  2  0
 18 40  1  0
 19 20  1  0
 19 41  1  0
 20 21  2  0
 20 42  1  0
 21 22  1  0
M  END

