
     RDKit          3D

 90 99  0  0  0  0  0  0  0  0999 V2000
   -4.8545   -6.0053    2.9049 C   0  0  0  0  0  0  0  0  0  0  0  0
   -4.0499   -4.9188    3.2617 C   0  0  0  0  0  0  0  0  0  0  0  0
   -3.7715   -3.9063    2.3422 C   0  0  0  0  0  0  0  0  0  0  0  0
   -4.2848   -3.9693    1.0323 C   0  0  0  0  0  0  0  0  0  0  0  0
   -3.9871   -2.9523    0.0918 N   0  0  0  0  0  0  0  0  0  0  0  0
   -4.9691   -2.4961   -0.8240 C   0  0  0  0  0  0  0  0  0  0  0  0
   -6.3087   -2.3298   -0.4237 C   0  0  0  0  0  0  0  0  0  0  0  0
   -7.2682   -1.8804   -1.3321 C   0  0  0  0  0  0  0  0  0  0  0  0
   -6.9141   -1.5707   -2.6492 C   0  0  0  0  0  0  0  0  0  0  0  0
   -5.5827   -1.7239   -3.0492 C   0  0  0  0  0  0  0  0  0  0  0  0
   -4.6192   -2.1879   -2.1526 C   0  0  0  0  0  0  0  0  0  0  0  0
   -2.6884   -2.3648    0.0805 C   0  0  0  0  0  0  0  0  0  0  0  0
   -1.5409   -3.1923    0.0550 C   0  0  0  0  0  0  0  0  0  0  0  0
   -0.2531   -2.6618    0.0526 C   0  0  0  0  0  0  0  0  0  0  0  0
   -0.1101   -1.2683    0.0593 C   0  0  0  0  0  0  0  0  0  0  0  0
   -1.2494   -0.4205    0.0550 C   0  0  0  0  0  0  0  0  0  0  0  0
   -2.5359   -0.9729    0.0821 C   0  0  0  0  0  0  0  0  0  0  0  0
   -0.7550    0.9430    0.0227 C   0  0  0  0  0  0  0  0  0  0  0  0
   -1.3886    2.1918    0.0087 C   0  0  0  0  0  0  0  0  0  0  0  0
   -0.6133    3.3577    0.0077 C   0  0  0  0  0  0  0  0  0  0  0  0
   -1.2338    4.6411    0.0109 N   0  0  0  0  0  0  0  0  0  0  0  0
   -0.8187    5.6199   -0.9255 C   0  0  0  0  0  0  0  0  0  0  0  0
   -0.7265    6.9770   -0.5590 C   0  0  0  0  0  0  0  0  0  0  0  0
   -0.3137    7.9342   -1.4864 C   0  0  0  0  0  0  0  0  0  0  0  0
    0.0325    7.5631   -2.7900 C   0  0  0  0  0  0  0  0  0  0  0  0
   -0.0476    6.2161   -3.1565 C   0  0  0  0  0  0  0  0  0  0  0  0
   -0.4749    5.2530   -2.2409 C   0  0  0  0  0  0  0  0  0  0  0  0
   -2.2712    4.9136    0.9386 C   0  0  0  0  0  0  0  0  0  0  0  0
   -3.4109    5.6454    0.5536 C   0  0  0  0  0  0  0  0  0  0  0  0
   -4.4267    5.9090    1.4737 C   0  0  0  0  0  0  0  0  0  0  0  0
   -4.3398    5.4370    2.7874 C   0  0  0  0  0  0  0  0  0  0  0  0
   -3.2148    4.7004    3.1721 C   0  0  0  0  0  0  0  0  0  0  0  0
   -2.1864    4.4456    2.2638 C   0  0  0  0  0  0  0  0  0  0  0  0
    0.7981    3.2571    0.0167 C   0  0  0  0  0  0  0  0  0  0  0  0
    1.4464    2.0245    0.0059 C   0  0  0  0  0  0  0  0  0  0  0  0
    0.6627    0.8634    0.0024 C   0  0  0  0  0  0  0  0  0  0  0  0
    1.0483   -0.4825    0.0258 N   0  0  0  0  0  0  0  0  0  0  0  0
    2.3795   -0.9650    0.0169 C   0  0  0  0  0  0  0  0  0  0  0  0
    2.8172   -1.8666    0.9991 C   0  0  0  0  0  0  0  0  0  0  0  0
    4.1254   -2.3480    0.9822 C   0  0  0  0  0  0  0  0  0  0  0  0
    5.0410   -1.9341   -0.0032 C   0  0  0  0  0  0  0  0  0  0  0  0
    6.4455   -2.4181   -0.0490 C   0  0  0  0  0  0  0  0  0  0  0  0
    6.9067   -3.5025    0.7748 C   0  0  0  0  0  0  0  0  0  0  0  0
    8.1400   -3.9416    0.7532 N   0  0  0  0  0  0  0  0  0  0  0  0
    9.0095   -3.3323   -0.0989 C   0  0  0  0  0  0  0  0  0  0  0  0
   10.3615   -3.7598   -0.1660 C   0  0  0  0  0  0  0  0  0  0  0  0
   11.2365   -3.1439   -1.0372 C   0  0  0  0  0  0  0  0  0  0  0  0
   10.7963   -2.0824   -1.8722 C   0  0  0  0  0  0  0  0  0  0  0  0
    9.4887   -1.6459   -1.8277 C   0  0  0  0  0  0  0  0  0  0  0  0
    8.5639   -2.2599   -0.9383 C   0  0  0  0  0  0  0  0  0  0  0  0
    7.2797   -1.8286   -0.8877 N   0  0  0  0  0  0  0  0  0  0  0  0
    4.5932   -1.0185   -0.9749 C   0  0  0  0  0  0  0  0  0  0  0  0
    3.2844   -0.5474   -0.9740 C   0  0  0  0  0  0  0  0  0  0  0  0
   -5.0865   -5.0712    0.6754 C   0  0  0  0  0  0  0  0  0  0  0  0
   -5.3720   -6.0700    1.6068 C   0  0  0  0  0  0  0  0  0  0  0  0
   -5.0753   -6.7929    3.6292 H   0  0  0  0  0  0  0  0  0  0  0  0
   -3.6421   -4.8487    4.2738 H   0  0  0  0  0  0  0  0  0  0  0  0
   -3.1538   -3.0555    2.6352 H   0  0  0  0  0  0  0  0  0  0  0  0
   -6.5933   -2.5540    0.6059 H   0  0  0  0  0  0  0  0  0  0  0  0
   -8.3026   -1.7575   -0.9999 H   0  0  0  0  0  0  0  0  0  0  0  0
   -7.6668   -1.2125   -3.3554 H   0  0  0  0  0  0  0  0  0  0  0  0
   -5.2893   -1.4911   -4.0764 H   0  0  0  0  0  0  0  0  0  0  0  0
   -3.5849   -2.3150   -2.4774 H   0  0  0  0  0  0  0  0  0  0  0  0
   -1.6755   -4.2754    0.0359 H   0  0  0  0  0  0  0  0  0  0  0  0
    0.6136   -3.3234    0.0246 H   0  0  0  0  0  0  0  0  0  0  0  0
   -3.4182   -0.3300    0.0948 H   0  0  0  0  0  0  0  0  0  0  0  0
   -2.4779    2.2639    0.0085 H   0  0  0  0  0  0  0  0  0  0  0  0
   -0.9794    7.2763    0.4597 H   0  0  0  0  0  0  0  0  0  0  0  0
   -0.2487    8.9818   -1.1799 H   0  0  0  0  0  0  0  0  0  0  0  0
    0.3615    8.3150   -3.5111 H   0  0  0  0  0  0  0  0  0  0  0  0
    0.2132    5.9088   -4.1728 H   0  0  0  0  0  0  0  0  0  0  0  0
   -0.5469    4.2062   -2.5414 H   0  0  0  0  0  0  0  0  0  0  0  0
   -3.4962    6.0054   -0.4732 H   0  0  0  0  0  0  0  0  0  0  0  0
   -5.3034    6.4784    1.1534 H   0  0  0  0  0  0  0  0  0  0  0  0
   -5.1404    5.6394    3.5027 H   0  0  0  0  0  0  0  0  0  0  0  0
   -3.1282    4.3281    4.1964 H   0  0  0  0  0  0  0  0  0  0  0  0
   -1.3070    3.8797    2.5767 H   0  0  0  0  0  0  0  0  0  0  0  0
    1.3895    4.1744    0.0337 H   0  0  0  0  0  0  0  0  0  0  0  0
    2.5360    1.9767    0.0212 H   0  0  0  0  0  0  0  0  0  0  0  0
    2.1315   -2.1765    1.7896 H   0  0  0  0  0  0  0  0  0  0  0  0
    4.4307   -3.0350    1.7727 H   0  0  0  0  0  0  0  0  0  0  0  0
    6.2168   -4.0146    1.4531 H   0  0  0  0  0  0  0  0  0  0  0  0
   10.6706   -4.5791    0.4863 H   0  0  0  0  0  0  0  0  0  0  0  0
   12.2775   -3.4720   -1.0898 H   0  0  0  0  0  0  0  0  0  0  0  0
   11.5058   -1.6089   -2.5556 H   0  0  0  0  0  0  0  0  0  0  0  0
    9.1278   -0.8311   -2.4585 H   0  0  0  0  0  0  0  0  0  0  0  0
    5.2976   -0.6958   -1.7425 H   0  0  0  0  0  0  0  0  0  0  0  0
    2.9486    0.1388   -1.7537 H   0  0  0  0  0  0  0  0  0  0  0  0
   -5.4833   -5.1402   -0.3391 H   0  0  0  0  0  0  0  0  0  0  0  0
   -5.9959   -6.9167    1.3079 H   0  0  0  0  0  0  0  0  0  0  0  0
  1  2  2  0
  1 55  1  0
  1 56  1  0
  2  3  1  0
  2 57  1  0
  3  4  2  0
  3 58  1  0
  4  5  1  0
  4 54  1  0
  5  6  1  0
  5 12  1  0
  6  7  2  0
  6 11  1  0
  7  8  1  0
  7 59  1  0
  8  9  2  0
  8 60  1  0
  9 10  1  0
  9 61  1  0
 10 11  2  0
 10 62  1  0
 11 63  1  0
 12 13  2  0
 12 17  1  0
 13 14  1  0
 13 64  1  0
 14 15  2  0
 14 65  1  0
 15 16  1  0
 15 37  1  0
 16 17  2  0
 16 18  1  0
 17 66  1  0
 18 19  2  0
 18 36  1  0
 19 20  1  0
 19 67  1  0
 20 21  1  0
 20 34  2  0
 21 22  1  0
 21 28  1  0
 22 23  2  0
 22 27  1  0
 23 24  1  0
 23 68  1  0
 24 25  2  0
 24 69  1  0
 25 26  1  0
 25 70  1  0
 26 27  2  0
 26 71  1  0
 27 72  1  0
 28 29  2  0
 28 33  1  0
 29 30  1  0
 29 73  1  0
 30 31  2  0
 30 74  1  0
 31 32  1  0
 31 75  1  0
 32 33  2  0
 32 76  1  0
 33 77  1  0
 34 35  1  0
 34 78  1  0
 35 36  2  0
 35 79  1  0
 36 37  1  0
 37 38  1  0
 38 39  2  0
 38 53  1  0
 39 40  1  0
 39 80  1  0
 40 41  2  0
 40 81  1  0
 41 42  1  0
 41 52  1  0
 42 43  2  0
 42 51  1  0
 43 44  1  0
 43 82  1  0
 44 45  2  0
 45 46  1  0
 45 50  1  0
 46 47  2  0
 46 83  1  0
 47 48  1  0
 47 84  1  0
 48 49  2  0
 48 85  1  0
 49 50  1  0
 49 86  1  0
 50 51  2  0
 52 53  2  0
 52 87  1  0
 53 88  1  0
 54 55  2  0
 54 89  1  0
 55 90  1  0
M  END

