
     RDKit          3D

 84 89  0  0  0  0  0  0  0  0999 V2000
    6.3899    0.6167   -2.4318 C   0  0  0  0  0  0  0  0  0  0  0  0
    7.2679    0.8968   -1.3632 O   0  0  0  0  0  0  0  0  0  0  0  0
    7.1238    0.2377   -0.1909 C   0  0  0  0  0  0  0  0  0  0  0  0
    8.0268    0.5843    0.8323 C   0  0  0  0  0  0  0  0  0  0  0  0
    7.9548   -0.0350    2.0704 C   0  0  0  0  0  0  0  0  0  0  0  0
    7.0010   -1.0424    2.3312 C   0  0  0  0  0  0  0  0  0  0  0  0
    6.9221   -1.6276    3.6975 C   0  0  0  0  0  0  0  0  0  0  0  0
    7.1303   -0.7752    4.6834 N   0  0  0  0  0  0  0  0  0  0  0  0
    7.0110   -1.1810    5.9476 C   0  0  0  0  0  0  0  0  0  0  0  0
    7.1768   -0.5442    7.1915 C   0  0  0  0  0  0  0  0  0  0  0  0
    7.4326    0.9079    7.4209 C   0  0  0  0  0  0  0  0  0  0  0  0
    6.9371    1.7505    6.6905 O   0  0  0  0  0  0  0  0  0  0  0  0
    8.1853    1.2173    8.5488 N   0  0  0  0  0  0  0  0  0  0  0  0
    9.3825    0.4402    8.8846 C   0  0  0  0  0  0  0  0  0  0  0  0
   10.6285    1.0876    8.2499 C   0  0  0  0  0  0  0  0  0  0  0  0
   10.8068    2.5002    8.6013 N   0  0  0  0  0  0  0  0  0  0  0  0
   11.5384    2.7089    9.8810 C   0  0  1  0  0  0  0  0  0  0  0  0
   13.0397    2.4277    9.5876 C   0  0  0  0  0  0  0  0  0  0  0  0
   13.4353    3.0128    8.3752 O   0  0  0  0  0  0  0  0  0  0  0  0
   11.3256    4.0920   10.4835 C   0  0  0  0  0  0  0  0  0  0  0  0
   11.9367    5.2326    9.9424 C   0  0  0  0  0  0  0  0  0  0  0  0
   11.7200    6.4738   10.5481 C   0  0  0  0  0  0  0  0  0  0  0  0
   10.9113    6.6005   11.6746 C   0  0  0  0  0  0  0  0  0  0  0  0
   10.2938    5.4676   12.2510 C   0  0  0  0  0  0  0  0  0  0  0  0
    9.4639    5.5968   13.3761 N   0  0  0  0  0  0  0  0  0  0  0  0
    9.8936    6.4654   14.4739 C   0  0  0  0  0  0  0  0  0  0  0  0
    8.7096    6.8785   15.3437 C   0  0  0  0  0  0  0  0  0  0  0  0
    8.0293    5.6874   15.8265 N   0  0  0  0  0  0  0  0  0  0  0  0
    7.5334    4.8856   14.7203 C   0  0  0  0  0  0  0  0  0  0  0  0
    8.6979    4.4450   13.8324 C   0  0  0  0  0  0  0  0  0  0  0  0
   10.5279    4.2196   11.6315 C   0  0  0  0  0  0  0  0  0  0  0  0
    9.5688    3.2491    8.3502 C   0  0  0  0  0  0  0  0  0  0  0  0
    8.3300    2.6166    9.0149 C   0  0  1  0  0  0  0  0  0  0  0  0
    8.5584    2.5171   10.0914 H   0  0  0  0  0  0  0  0  0  0  0  0
    7.0783    3.4854    8.9135 C   0  0  0  0  0  0  0  0  0  0  0  0
    6.8677   -1.5526    8.1287 C   0  0  0  0  0  0  0  0  0  0  0  0
    6.5402   -2.7195    7.5711 N   0  0  0  0  0  0  0  0  0  0  0  0
    6.6360   -2.4981    6.2493 N   0  0  0  0  0  0  0  0  0  0  0  0
    6.4672   -3.4301    5.2542 C   0  0  0  0  0  0  0  0  0  0  0  0
    6.0991   -4.8254    5.7553 C   0  0  1  0  0  0  0  0  0  0  0  0
    5.0010   -4.7819    6.5142 F   0  0  0  0  0  0  0  0  0  0  0  0
    5.8368   -5.6704    4.7449 F   0  0  0  0  0  0  0  0  0  0  0  0
    7.0932   -5.3608    6.4727 F   0  0  0  0  0  0  0  0  0  0  0  0
    6.6508   -3.0427    3.9378 C   0  0  0  0  0  0  0  0  0  0  0  0
    6.6784   -4.0334    2.7923 C   0  0  0  0  0  0  0  0  0  0  0  0
    6.0987   -1.3680    1.3069 C   0  0  0  0  0  0  0  0  0  0  0  0
    6.1477   -0.7393    0.0593 C   0  0  0  0  0  0  0  0  0  0  0  0
    6.6962    1.2630   -3.2650 H   0  0  0  0  0  0  0  0  0  0  0  0
    5.3406    0.8429   -2.1706 H   0  0  0  0  0  0  0  0  0  0  0  0
    6.4580   -0.4382   -2.7532 H   0  0  0  0  0  0  0  0  0  0  0  0
    8.7723    1.3547    0.6258 H   0  0  0  0  0  0  0  0  0  0  0  0
    8.6383    0.2591    2.8684 H   0  0  0  0  0  0  0  0  0  0  0  0
    9.2822   -0.5895    8.5201 H   0  0  0  0  0  0  0  0  0  0  0  0
    9.4842    0.3937    9.9831 H   0  0  0  0  0  0  0  0  0  0  0  0
   10.5274    1.0123    7.1521 H   0  0  0  0  0  0  0  0  0  0  0  0
   11.5277    0.5176    8.5275 H   0  0  0  0  0  0  0  0  0  0  0  0
   11.2127    1.9769   10.6467 H   0  0  0  0  0  0  0  0  0  0  0  0
   13.2121    1.3303    9.5765 H   0  0  0  0  0  0  0  0  0  0  0  0
   13.6544    2.8349   10.4066 H   0  0  0  0  0  0  0  0  0  0  0  0
   12.6172    2.9948    7.8391 H   0  0  0  0  0  0  0  0  0  0  0  0
   12.5870    5.1390    9.0725 H   0  0  0  0  0  0  0  0  0  0  0  0
   12.1877    7.3682   10.1271 H   0  0  0  0  0  0  0  0  0  0  0  0
   10.7419    7.5913   12.0983 H   0  0  0  0  0  0  0  0  0  0  0  0
   10.3790    7.3632   14.0730 H   0  0  0  0  0  0  0  0  0  0  0  0
   10.6370    5.9402   15.1109 H   0  0  0  0  0  0  0  0  0  0  0  0
    8.0472    7.5429   14.7429 H   0  0  0  0  0  0  0  0  0  0  0  0
    9.0811    7.4629   16.2012 H   0  0  0  0  0  0  0  0  0  0  0  0
    7.2758    5.9307   16.4661 H   0  0  0  0  0  0  0  0  0  0  0  0
    6.8015    5.4333   14.0836 H   0  0  0  0  0  0  0  0  0  0  0  0
    7.0267    3.9894   15.1137 H   0  0  0  0  0  0  0  0  0  0  0  0
    8.2903    3.9154   12.9594 H   0  0  0  0  0  0  0  0  0  0  0  0
    9.3330    3.7286   14.3976 H   0  0  0  0  0  0  0  0  0  0  0  0
   10.0999    3.3140   12.0621 H   0  0  0  0  0  0  0  0  0  0  0  0
    9.3970    3.2737    7.2600 H   0  0  0  0  0  0  0  0  0  0  0  0
    9.6938    4.2859    8.6861 H   0  0  0  0  0  0  0  0  0  0  0  0
    6.8539    3.7729    7.8803 H   0  0  0  0  0  0  0  0  0  0  0  0
    7.2327    4.3922    9.5201 H   0  0  0  0  0  0  0  0  0  0  0  0
    6.2007    2.9548    9.3145 H   0  0  0  0  0  0  0  0  0  0  0  0
    6.8503   -1.4618    9.2149 H   0  0  0  0  0  0  0  0  0  0  0  0
    7.2012   -4.9552    3.0725 H   0  0  0  0  0  0  0  0  0  0  0  0
    7.1999   -3.5964    1.9335 H   0  0  0  0  0  0  0  0  0  0  0  0
    5.6688   -4.3241    2.4611 H   0  0  0  0  0  0  0  0  0  0  0  0
    5.3104   -2.1021    1.4829 H   0  0  0  0  0  0  0  0  0  0  0  0
    5.4161   -1.0121   -0.7012 H   0  0  0  0  0  0  0  0  0  0  0  0
  1  2  1  0
  1 48  1  0
  1 49  1  0
  1 50  1  0
  2  3  1  0
  3  4  2  0
  3 47  1  0
  4  5  1  0
  4 51  1  0
  5  6  2  0
  5 52  1  0
  6  7  1  0
  6 46  1  0
  7  8  2  0
  7 44  1  0
  8  9  1  0
  9 10  2  0
  9 38  1  0
 10 11  1  0
 10 36  1  0
 11 12  2  0
 11 13  1  0
 13 14  1  0
 13 33  1  0
 14 15  1  0
 14 53  1  0
 14 54  1  0
 15 16  1  0
 15 55  1  0
 15 56  1  0
 16 17  1  0
 16 32  1  0
 17 18  1  0
 17 20  1  0
 17 57  1  1
 18 19  1  0
 18 58  1  0
 18 59  1  0
 19 60  1  0
 20 21  2  0
 20 31  1  0
 21 22  1  0
 21 61  1  0
 22 23  2  0
 22 62  1  0
 23 24  1  0
 23 63  1  0
 24 25  1  0
 24 31  2  0
 25 26  1  0
 25 30  1  0
 26 27  1  0
 26 64  1  0
 26 65  1  0
 27 28  1  0
 27 66  1  0
 27 67  1  0
 28 29  1  0
 28 68  1  0
 29 30  1  0
 29 69  1  0
 29 70  1  0
 30 71  1  0
 30 72  1  0
 31 73  1  0
 32 33  1  0
 32 74  1  0
 32 75  1  0
 33 34  1  1
 33 35  1  0
 35 76  1  0
 35 77  1  0
 35 78  1  0
 36 37  2  0
 36 79  1  0
 37 38  1  0
 38 39  1  0
 39 40  1  0
 39 44  2  0
 40 41  1  1
 40 42  1  0
 40 43  1  0
 44 45  1  0
 45 80  1  0
 45 81  1  0
 45 82  1  0
 46 47  2  0
 46 83  1  0
 47 84  1  0
M  END

