
     RDKit          3D

106119  0  0  0  0  0  0  0  0999 V2000
    9.3517    2.3818   -4.0850 N   0  0  0  0  0  0  0  0  0  0  0  0
    8.5815    2.1525   -3.2476 C   0  0  0  0  0  0  0  0  0  0  0  0
    7.6118    1.9185   -2.2165 C   0  0  0  0  0  0  0  0  0  0  0  0
    6.5311    2.8023   -2.0880 C   0  0  0  0  0  0  0  0  0  0  0  0
    5.5991    2.6673   -1.0492 C   0  0  0  0  0  0  0  0  0  0  0  0
    4.5630    3.6503   -0.9145 C   0  0  0  0  0  0  0  0  0  0  0  0
    3.7475    4.4718   -0.8289 N   0  0  0  0  0  0  0  0  0  0  0  0
    5.7368    1.6001   -0.1231 C   0  0  0  0  0  0  0  0  0  0  0  0
    4.7977    1.4042    0.9064 N   0  0  0  0  0  0  0  0  0  0  0  0
    5.0978    1.3226    2.2773 C   0  0  0  0  0  0  0  0  0  0  0  0
    6.3098    1.5499    2.9375 C   0  0  0  0  0  0  0  0  0  0  0  0
    6.3257    1.4301    4.3286 C   0  0  0  0  0  0  0  0  0  0  0  0
    5.1624    1.1018    5.0476 C   0  0  0  0  0  0  0  0  0  0  0  0
    3.9533    0.8924    4.3847 C   0  0  0  0  0  0  0  0  0  0  0  0
    3.9123    1.0032    2.9881 C   0  0  0  0  0  0  0  0  0  0  0  0
    2.8518    0.8708    2.0050 C   0  0  0  0  0  0  0  0  0  0  0  0
    1.4959    0.5379    2.0988 C   0  0  0  0  0  0  0  0  0  0  0  0
    0.7120    0.4400    0.9391 C   0  0  0  0  0  0  0  0  0  0  0  0
   -0.7334    0.0972    1.0236 C   0  0  0  0  0  0  0  0  0  0  0  0
   -1.3316   -0.7560    0.0648 C   0  0  0  0  0  0  0  0  0  0  0  0
   -2.6795   -1.1066    0.1139 C   0  0  0  0  0  0  0  0  0  0  0  0
   -3.4531   -0.5934    1.1585 C   0  0  0  0  0  0  0  0  0  0  0  0
   -2.8916    0.2791    2.1235 C   0  0  0  0  0  0  0  0  0  0  0  0
   -1.5353    0.6155    2.0520 C   0  0  0  0  0  0  0  0  0  0  0  0
   -3.9676    0.6761    3.0142 C   0  0  0  0  0  0  0  0  0  0  0  0
   -4.0290    1.4977    4.1480 C   0  0  0  0  0  0  0  0  0  0  0  0
   -5.2495    1.6621    4.8026 C   0  0  0  0  0  0  0  0  0  0  0  0
   -6.4041    1.0055    4.3404 C   0  0  0  0  0  0  0  0  0  0  0  0
   -6.3680    0.1789    3.2155 C   0  0  0  0  0  0  0  0  0  0  0  0
   -5.1446    0.0313    2.5540 C   0  0  0  0  0  0  0  0  0  0  0  0
   -4.8245   -0.7516    1.4312 N   0  0  0  0  0  0  0  0  0  0  0  0
   -5.7504   -1.4532    0.6368 C   0  0  0  0  0  0  0  0  0  0  0  0
   -6.8170   -0.7692    0.0411 C   0  0  0  0  0  0  0  0  0  0  0  0
   -7.7415   -1.4177   -0.7864 C   0  0  0  0  0  0  0  0  0  0  0  0
   -8.7765   -0.6812   -1.3921 N   0  0  0  0  0  0  0  0  0  0  0  0
   -8.9521   -0.4851   -2.7755 C   0  0  0  0  0  0  0  0  0  0  0  0
   -8.2163   -0.9966   -3.8489 C   0  0  0  0  0  0  0  0  0  0  0  0
   -8.5929   -0.6115   -5.1367 C   0  0  0  0  0  0  0  0  0  0  0  0
   -9.6704    0.2661   -5.3534 C   0  0  0  0  0  0  0  0  0  0  0  0
  -10.3888    0.7865   -4.2779 C   0  0  0  0  0  0  0  0  0  0  0  0
  -10.0290    0.4162   -2.9745 C   0  0  0  0  0  0  0  0  0  0  0  0
  -10.5227    0.7865   -1.6606 C   0  0  0  0  0  0  0  0  0  0  0  0
  -11.5628    1.6154   -1.2180 C   0  0  0  0  0  0  0  0  0  0  0  0
  -11.7897    1.7487    0.1516 C   0  0  0  0  0  0  0  0  0  0  0  0
  -10.9943    1.0540    1.0803 C   0  0  0  0  0  0  0  0  0  0  0  0
   -9.9551    0.2191    0.6646 C   0  0  0  0  0  0  0  0  0  0  0  0
   -9.7224    0.1024   -0.7097 C   0  0  0  0  0  0  0  0  0  0  0  0
   -7.5991   -2.8111   -1.0174 C   0  0  0  0  0  0  0  0  0  0  0  0
   -8.5572   -3.5461   -1.7921 C   0  0  0  0  0  0  0  0  0  0  0  0
   -9.3186   -4.1766   -2.4003 N   0  0  0  0  0  0  0  0  0  0  0  0
   -6.5302   -3.5010   -0.4283 C   0  0  0  0  0  0  0  0  0  0  0  0
   -5.6113   -2.8467    0.4043 C   0  0  0  0  0  0  0  0  0  0  0  0
   -4.5872   -3.6174    1.0489 C   0  0  0  0  0  0  0  0  0  0  0  0
   -3.7810   -4.2750    1.5634 N   0  0  0  0  0  0  0  0  0  0  0  0
    1.3278    0.6718   -0.3147 C   0  0  0  0  0  0  0  0  0  0  0  0
    2.6756    1.0052   -0.4352 C   0  0  0  0  0  0  0  0  0  0  0  0
    3.4308    1.1170    0.7354 C   0  0  0  0  0  0  0  0  0  0  0  0
    6.8158    0.7184   -0.2600 C   0  0  0  0  0  0  0  0  0  0  0  0
    7.7536    0.8516   -1.2909 C   0  0  0  0  0  0  0  0  0  0  0  0
    8.8016   -0.0803   -1.4090 N   0  0  0  0  0  0  0  0  0  0  0  0
    9.7386   -0.3797   -0.4057 C   0  0  0  0  0  0  0  0  0  0  0  0
    9.9479    0.2423    0.8296 C   0  0  0  0  0  0  0  0  0  0  0  0
   10.9832   -0.2390    1.6336 C   0  0  0  0  0  0  0  0  0  0  0  0
   11.7975   -1.3066    1.2154 C   0  0  0  0  0  0  0  0  0  0  0  0
   11.5939   -1.9118   -0.0246 C   0  0  0  0  0  0  0  0  0  0  0  0
   10.5582   -1.4497   -0.8484 C   0  0  0  0  0  0  0  0  0  0  0  0
   10.0862   -1.8267   -2.1683 C   0  0  0  0  0  0  0  0  0  0  0  0
   10.4704   -2.8187   -3.0815 C   0  0  0  0  0  0  0  0  0  0  0  0
    9.7693   -2.9456   -4.2797 C   0  0  0  0  0  0  0  0  0  0  0  0
    8.6849   -2.0974   -4.5676 C   0  0  0  0  0  0  0  0  0  0  0  0
    8.2841   -1.1012   -3.6759 C   0  0  0  0  0  0  0  0  0  0  0  0
    9.0025   -0.9677   -2.4837 C   0  0  0  0  0  0  0  0  0  0  0  0
    6.4334    3.6324   -2.7887 H   0  0  0  0  0  0  0  0  0  0  0  0
    7.2152    1.8206    2.3924 H   0  0  0  0  0  0  0  0  0  0  0  0
    7.2614    1.6004    4.8667 H   0  0  0  0  0  0  0  0  0  0  0  0
    5.2077    1.0164    6.1356 H   0  0  0  0  0  0  0  0  0  0  0  0
    3.0484    0.6481    4.9463 H   0  0  0  0  0  0  0  0  0  0  0  0
    1.0556    0.3218    3.0747 H   0  0  0  0  0  0  0  0  0  0  0  0
   -0.7124   -1.1779   -0.7295 H   0  0  0  0  0  0  0  0  0  0  0  0
   -3.1003   -1.7710   -0.6420 H   0  0  0  0  0  0  0  0  0  0  0  0
   -1.1085    1.3098    2.7792 H   0  0  0  0  0  0  0  0  0  0  0  0
   -3.1310    2.0002    4.5153 H   0  0  0  0  0  0  0  0  0  0  0  0
   -5.3106    2.3014    5.6862 H   0  0  0  0  0  0  0  0  0  0  0  0
   -7.3491    1.1386    4.8728 H   0  0  0  0  0  0  0  0  0  0  0  0
   -7.2670   -0.3377    2.8760 H   0  0  0  0  0  0  0  0  0  0  0  0
   -6.9055    0.3071    0.1911 H   0  0  0  0  0  0  0  0  0  0  0  0
   -7.3753   -1.6748   -3.6980 H   0  0  0  0  0  0  0  0  0  0  0  0
   -8.0370   -1.0034   -5.9918 H   0  0  0  0  0  0  0  0  0  0  0  0
   -9.9412    0.5450   -6.3742 H   0  0  0  0  0  0  0  0  0  0  0  0
  -11.2172    1.4787   -4.4466 H   0  0  0  0  0  0  0  0  0  0  0  0
  -12.1898    2.1469   -1.9380 H   0  0  0  0  0  0  0  0  0  0  0  0
  -12.5964    2.3929    0.5087 H   0  0  0  0  0  0  0  0  0  0  0  0
  -11.1944    1.1630    2.1490 H   0  0  0  0  0  0  0  0  0  0  0  0
   -9.3558   -0.3283    1.3938 H   0  0  0  0  0  0  0  0  0  0  0  0
   -6.4321   -4.5748   -0.5923 H   0  0  0  0  0  0  0  0  0  0  0  0
    0.7226    0.6142   -1.2218 H   0  0  0  0  0  0  0  0  0  0  0  0
    3.1102    1.1808   -1.4202 H   0  0  0  0  0  0  0  0  0  0  0  0
    6.9042   -0.1214    0.4299 H   0  0  0  0  0  0  0  0  0  0  0  0
    9.3339    1.0826    1.1570 H   0  0  0  0  0  0  0  0  0  0  0  0
   11.1653    0.2294    2.6040 H   0  0  0  0  0  0  0  0  0  0  0  0
   12.6006   -1.6587    1.8667 H   0  0  0  0  0  0  0  0  0  0  0  0
   12.2356   -2.7332   -0.3524 H   0  0  0  0  0  0  0  0  0  0  0  0
   11.3044   -3.4867   -2.8528 H   0  0  0  0  0  0  0  0  0  0  0  0
   10.0592   -3.7131   -5.0008 H   0  0  0  0  0  0  0  0  0  0  0  0
    8.1430   -2.2166   -5.5089 H   0  0  0  0  0  0  0  0  0  0  0  0
    7.4382   -0.4542   -3.9128 H   0  0  0  0  0  0  0  0  0  0  0  0
  1  2  3  0
  2  3  1  0
  3  4  2  0
  3 59  1  0
  4  5  1  0
  4 73  1  0
  5  6  1  0
  5  8  2  0
  6  7  3  0
  8  9  1  0
  8 58  1  0
  9 10  1  0
  9 57  1  0
 10 11  2  0
 10 15  1  0
 11 12  1  0
 11 74  1  0
 12 13  2  0
 12 75  1  0
 13 14  1  0
 13 76  1  0
 14 15  2  0
 14 77  1  0
 15 16  1  0
 16 17  1  0
 16 57  2  0
 17 18  2  0
 17 78  1  0
 18 19  1  0
 18 55  1  0
 19 20  2  0
 19 24  1  0
 20 21  1  0
 20 79  1  0
 21 22  2  0
 21 80  1  0
 22 23  1  0
 22 31  1  0
 23 24  2  0
 23 25  1  0
 24 81  1  0
 25 26  2  0
 25 30  1  0
 26 27  1  0
 26 82  1  0
 27 28  2  0
 27 83  1  0
 28 29  1  0
 28 84  1  0
 29 30  2  0
 29 85  1  0
 30 31  1  0
 31 32  1  0
 32 33  2  0
 32 52  1  0
 33 34  1  0
 33 86  1  0
 34 35  1  0
 34 48  2  0
 35 36  1  0
 35 47  1  0
 36 37  2  0
 36 41  1  0
 37 38  1  0
 37 87  1  0
 38 39  2  0
 38 88  1  0
 39 40  1  0
 39 89  1  0
 40 41  2  0
 40 90  1  0
 41 42  1  0
 42 43  1  0
 42 47  2  0
 43 44  2  0
 43 91  1  0
 44 45  1  0
 44 92  1  0
 45 46  2  0
 45 93  1  0
 46 47  1  0
 46 94  1  0
 48 49  1  0
 48 51  1  0
 49 50  3  0
 51 52  2  0
 51 95  1  0
 52 53  1  0
 53 54  3  0
 55 56  2  0
 55 96  1  0
 56 57  1  0
 56 97  1  0
 58 59  2  0
 58 98  1  0
 59 60  1  0
 60 61  1  0
 60 72  1  0
 61 62  2  0
 61 66  1  0
 62 63  1  0
 62 99  1  0
 63 64  2  0
 63100  1  0
 64 65  1  0
 64101  1  0
 65 66  2  0
 65102  1  0
 66 67  1  0
 67 68  1  0
 67 72  2  0
 68 69  2  0
 68103  1  0
 69 70  1  0
 69104  1  0
 70 71  2  0
 70105  1  0
 71 72  1  0
 71106  1  0
M  END

