
     RDKit          3D

 47 49  0  0  0  0  0  0  0  0999 V2000
    2.0682   -9.1994    1.4301 C   0  0  0  0  0  0  0  0  0  0  0  0
    2.1856   -8.0212    0.6654 O   0  0  0  0  0  0  0  0  0  0  0  0
    3.3887   -7.6991    0.1057 C   0  0  0  0  0  0  0  0  0  0  0  0
    4.5181   -8.5258    0.1480 C   0  0  0  0  0  0  0  0  0  0  0  0
    5.7108   -8.1005   -0.4514 C   0  0  0  0  0  0  0  0  0  0  0  0
    5.7815   -6.8620   -1.0862 C   0  0  0  0  0  0  0  0  0  0  0  0
    4.6452   -6.0436   -1.1230 C   0  0  0  0  0  0  0  0  0  0  0  0
    3.4409   -6.4436   -0.5410 C   0  0  0  0  0  0  0  0  0  0  0  0
    2.2048   -5.5658   -0.5844 C   0  0  0  0  0  0  0  0  0  0  0  0
    1.7539   -5.1121    0.7205 N   0  0  0  0  0  0  0  0  0  0  0  0
    2.0974   -3.8987    1.2168 C   0  0  0  0  0  0  0  0  0  0  0  0
    2.7422   -3.0524    0.6184 O   0  0  0  0  0  0  0  0  0  0  0  0
    1.6163   -3.6116    2.6379 C   0  0  0  0  0  0  0  0  0  0  0  0
    0.8039   -4.6861    3.1087 O   0  0  0  0  0  0  0  0  0  0  0  0
    0.3951   -4.6578    4.3869 C   0  0  0  0  0  0  0  0  0  0  0  0
    0.6986   -3.7676    5.1502 O   0  0  0  0  0  0  0  0  0  0  0  0
   -0.4665   -5.8160    4.7777 C   0  0  0  0  0  0  0  0  0  0  0  0
   -0.8901   -5.8013    6.1394 C   0  0  0  0  0  0  0  0  0  0  0  0
   -1.7126   -6.7687    6.6604 C   0  0  0  0  0  0  0  0  0  0  0  0
   -2.1407   -6.7762    7.9513 O   0  0  0  0  0  0  0  0  0  0  0  0
   -2.1628   -7.8430    5.8285 C   0  0  0  0  0  0  0  0  0  0  0  0
   -3.0130   -8.8616    6.3313 C   0  0  0  0  0  0  0  0  0  0  0  0
   -3.4301   -9.8990    5.5215 C   0  0  0  0  0  0  0  0  0  0  0  0
   -3.0048   -9.9599    4.1747 C   0  0  0  0  0  0  0  0  0  0  0  0
   -2.1771   -8.9800    3.6630 C   0  0  0  0  0  0  0  0  0  0  0  0
   -1.7366   -7.8874    4.4615 C   0  0  0  0  0  0  0  0  0  0  0  0
   -0.8861   -6.8496    3.9399 C   0  0  0  0  0  0  0  0  0  0  0  0
   -0.4927   -6.8973    2.6391 O   0  0  0  0  0  0  0  0  0  0  0  0
    1.0605   -9.1865    1.8655 H   0  0  0  0  0  0  0  0  0  0  0  0
    2.8042   -9.2290    2.2530 H   0  0  0  0  0  0  0  0  0  0  0  0
    2.1884  -10.1074    0.8120 H   0  0  0  0  0  0  0  0  0  0  0  0
    4.4817   -9.4978    0.6404 H   0  0  0  0  0  0  0  0  0  0  0  0
    6.5885   -8.7511   -0.4132 H   0  0  0  0  0  0  0  0  0  0  0  0
    6.7139   -6.5279   -1.5470 H   0  0  0  0  0  0  0  0  0  0  0  0
    4.6924   -5.0646   -1.6075 H   0  0  0  0  0  0  0  0  0  0  0  0
    1.3769   -6.1158   -1.0616 H   0  0  0  0  0  0  0  0  0  0  0  0
    2.4153   -4.6710   -1.1850 H   0  0  0  0  0  0  0  0  0  0  0  0
    1.2571   -5.7620    1.3229 H   0  0  0  0  0  0  0  0  0  0  0  0
    1.0516   -2.6659    2.6388 H   0  0  0  0  0  0  0  0  0  0  0  0
    2.4904   -3.4680    3.2928 H   0  0  0  0  0  0  0  0  0  0  0  0
   -0.5363   -4.9699    6.7533 H   0  0  0  0  0  0  0  0  0  0  0  0
   -1.7819   -6.0063    8.4121 H   0  0  0  0  0  0  0  0  0  0  0  0
   -3.3269   -8.8031    7.3740 H   0  0  0  0  0  0  0  0  0  0  0  0
   -4.0855  -10.6770    5.9204 H   0  0  0  0  0  0  0  0  0  0  0  0
   -3.3268  -10.7869    3.5374 H   0  0  0  0  0  0  0  0  0  0  0  0
   -1.8589   -9.0753    2.6203 H   0  0  0  0  0  0  0  0  0  0  0  0
   -1.0435   -7.5276    2.1582 H   0  0  0  0  0  0  0  0  0  0  0  0
  1  2  1  0
  1 29  1  0
  1 30  1  0
  1 31  1  0
  2  3  1  0
  3  4  2  0
  3  8  1  0
  4  5  1  0
  4 32  1  0
  5  6  2  0
  5 33  1  0
  6  7  1  0
  6 34  1  0
  7  8  2  0
  7 35  1  0
  8  9  1  0
  9 10  1  0
  9 36  1  0
  9 37  1  0
 10 11  1  0
 10 38  1  0
 11 12  2  0
 11 13  1  0
 13 14  1  0
 13 39  1  0
 13 40  1  0
 14 15  1  0
 15 16  2  0
 15 17  1  0
 17 18  2  0
 17 27  1  0
 18 19  1  0
 18 41  1  0
 19 20  1  0
 19 21  2  0
 20 42  1  0
 21 22  1  0
 21 26  1  0
 22 23  2  0
 22 43  1  0
 23 24  1  0
 23 44  1  0
 24 25  2  0
 24 45  1  0
 25 26  1  0
 25 46  1  0
 26 27  2  0
 27 28  1  0
 28 47  1  0
M  END

