
     RDKit          3D

 38 39  0  0  0  0  0  0  0  0999 V2000
    9.9158   -0.9165   -5.8828 C   0  0  0  0  0  0  0  0  0  0  0  0
    9.5121   -2.2944   -6.4285 C   0  0  0  0  0  0  0  0  0  0  0  0
    8.5050   -2.2138   -7.5407 C   0  0  0  0  0  0  0  0  0  0  0  0
    8.9086   -2.1190   -8.8040 N   0  0  0  0  0  0  0  0  0  0  0  0
    7.7912   -2.0179   -9.5467 N   0  0  0  0  0  0  0  0  0  0  0  0
    7.8986   -1.8767  -10.9832 C   0  0  0  0  0  0  0  0  0  0  0  0
    6.6684   -2.0658   -8.7940 C   0  0  0  0  0  0  0  0  0  0  0  0
    7.0726   -2.1961   -7.4664 C   0  0  0  0  0  0  0  0  0  0  0  0
    6.2904   -2.1781   -6.2029 C   0  0  0  0  0  0  0  0  0  0  0  0
    6.7820   -1.6788   -5.1925 O   0  0  0  0  0  0  0  0  0  0  0  0
    5.0201   -2.7257   -6.1797 N   0  0  0  0  0  0  0  0  0  0  0  0
    4.4238   -3.4833   -7.2654 C   0  0  0  0  0  0  0  0  0  0  0  0
    4.2226   -2.5230   -4.9770 C   0  0  2  0  0  0  0  0  0  0  0  0
    4.8133   -1.8296   -4.3622 H   0  0  0  0  0  0  0  0  0  0  0  0
    3.9232   -3.7893   -4.1317 C   0  0  0  0  0  0  0  0  0  0  0  0
    2.5144   -3.6463   -3.7458 N   0  0  0  0  0  0  0  0  0  0  0  0
    2.1170   -2.2569   -3.9042 C   0  0  0  0  0  0  0  0  0  0  0  0
    2.8396   -1.8729   -5.2011 C   0  0  1  0  0  0  0  0  0  0  0  0
    2.3142   -2.3589   -6.0385 H   0  0  0  0  0  0  0  0  0  0  0  0
    2.8776   -0.5056   -5.5168 O   0  0  0  0  0  0  0  0  0  0  0  0
   10.6763   -1.0192   -5.0917 H   0  0  0  0  0  0  0  0  0  0  0  0
    9.0392   -0.4091   -5.4554 H   0  0  0  0  0  0  0  0  0  0  0  0
   10.3377   -0.2858   -6.6816 H   0  0  0  0  0  0  0  0  0  0  0  0
    9.0991   -2.8985   -5.6072 H   0  0  0  0  0  0  0  0  0  0  0  0
   10.4001   -2.8165   -6.8200 H   0  0  0  0  0  0  0  0  0  0  0  0
    8.4170   -2.7471  -11.4135 H   0  0  0  0  0  0  0  0  0  0  0  0
    8.4693   -0.9698  -11.2341 H   0  0  0  0  0  0  0  0  0  0  0  0
    6.8924   -1.8031  -11.4170 H   0  0  0  0  0  0  0  0  0  0  0  0
    5.6839   -1.9728   -9.2453 H   0  0  0  0  0  0  0  0  0  0  0  0
    5.1952   -4.0107   -7.8403 H   0  0  0  0  0  0  0  0  0  0  0  0
    3.8358   -2.8535   -7.9575 H   0  0  0  0  0  0  0  0  0  0  0  0
    3.7416   -4.2412   -6.8509 H   0  0  0  0  0  0  0  0  0  0  0  0
    4.6205   -3.8368   -3.2729 H   0  0  0  0  0  0  0  0  0  0  0  0
    4.0822   -4.7141   -4.7149 H   0  0  0  0  0  0  0  0  0  0  0  0
    2.2958   -4.0389   -2.8353 H   0  0  0  0  0  0  0  0  0  0  0  0
    2.4592   -1.5741   -3.0900 H   0  0  0  0  0  0  0  0  0  0  0  0
    1.0231   -2.1507   -3.9846 H   0  0  0  0  0  0  0  0  0  0  0  0
    3.4336   -0.0553   -4.8656 H   0  0  0  0  0  0  0  0  0  0  0  0
  1  2  1  0
  1 21  1  0
  1 22  1  0
  1 23  1  0
  2  3  1  0
  2 24  1  0
  2 25  1  0
  3  4  2  0
  3  8  1  0
  4  5  1  0
  5  6  1  0
  5  7  1  0
  6 26  1  0
  6 27  1  0
  6 28  1  0
  7  8  2  0
  7 29  1  0
  8  9  1  0
  9 10  2  0
  9 11  1  0
 11 12  1  0
 11 13  1  0
 12 30  1  0
 12 31  1  0
 12 32  1  0
 13 14  1  1
 13 15  1  0
 13 18  1  0
 15 16  1  0
 15 33  1  0
 15 34  1  0
 16 17  1  0
 16 35  1  0
 17 18  1  0
 17 36  1  0
 17 37  1  0
 18 19  1  6
 18 20  1  0
 20 38  1  0
M  END

