
     RDKit          3D

 79 88  0  0  0  0  0  0  0  0999 V2000
   -7.3783   -5.3321   -1.4093 C   0  0  0  0  0  0  0  0  0  0  0  0
   -8.2655   -4.4025   -0.8558 C   0  0  0  0  0  0  0  0  0  0  0  0
   -7.8146   -3.1327   -0.4953 C   0  0  0  0  0  0  0  0  0  0  0  0
   -6.4675   -2.7765   -0.6846 C   0  0  0  0  0  0  0  0  0  0  0  0
   -5.9862   -1.4244   -0.3009 C   0  0  0  0  0  0  0  0  0  0  0  0
   -6.8669   -0.5651    0.2278 N   0  0  0  0  0  0  0  0  0  0  0  0
   -6.3966    0.6440    0.5598 C   0  0  0  0  0  0  0  0  0  0  0  0
   -7.3409    1.6274    1.1499 C   0  0  0  0  0  0  0  0  0  0  0  0
   -8.6889    1.2845    1.3562 C   0  0  0  0  0  0  0  0  0  0  0  0
   -9.5746    2.2086    1.9107 C   0  0  0  0  0  0  0  0  0  0  0  0
   -9.1265    3.4857    2.2656 C   0  0  0  0  0  0  0  0  0  0  0  0
   -7.7869    3.8350    2.0633 C   0  0  0  0  0  0  0  0  0  0  0  0
   -6.8987    2.9130    1.5094 C   0  0  0  0  0  0  0  0  0  0  0  0
   -5.1203    1.0149    0.3888 N   0  0  0  0  0  0  0  0  0  0  0  0
   -4.3034    0.0982   -0.1440 C   0  0  0  0  0  0  0  0  0  0  0  0
   -2.8789    0.4662   -0.3492 C   0  0  0  0  0  0  0  0  0  0  0  0
   -1.9786   -0.4478   -0.9229 C   0  0  0  0  0  0  0  0  0  0  0  0
   -0.6442   -0.1031   -1.1224 C   0  0  0  0  0  0  0  0  0  0  0  0
   -0.1761    1.1638   -0.7368 C   0  0  0  0  0  0  0  0  0  0  0  0
    1.1839    1.5142   -0.9301 N   0  0  0  0  0  0  0  0  0  0  0  0
    1.6512    2.6449   -1.6132 C   0  0  0  0  0  0  0  0  0  0  0  0
    0.9325    3.6445   -2.2815 C   0  0  0  0  0  0  0  0  0  0  0  0
    1.6574    4.6583   -2.9091 C   0  0  0  0  0  0  0  0  0  0  0  0
    3.0646    4.6813   -2.8820 C   0  0  0  0  0  0  0  0  0  0  0  0
    3.7766    3.6767   -2.2290 C   0  0  0  0  0  0  0  0  0  0  0  0
    3.0716    2.6461   -1.5905 C   0  0  0  0  0  0  0  0  0  0  0  0
    3.4783    1.4629   -0.8581 C   0  0  0  0  0  0  0  0  0  0  0  0
    4.7247    0.9458   -0.4849 C   0  0  0  0  0  0  0  0  0  0  0  0
    4.7781   -0.2379    0.2572 C   0  0  0  0  0  0  0  0  0  0  0  0
    6.0362   -0.7899    0.6310 N   0  0  0  0  0  0  0  0  0  0  0  0
    6.4996   -0.9533    1.9378 C   0  0  0  0  0  0  0  0  0  0  0  0
    5.8868   -0.6049    3.1484 C   0  0  0  0  0  0  0  0  0  0  0  0
    6.5818   -0.8687    4.3294 C   0  0  0  0  0  0  0  0  0  0  0  0
    7.8588   -1.4618    4.3129 C   0  0  0  0  0  0  0  0  0  0  0  0
    8.4688   -1.7985    3.1051 C   0  0  0  0  0  0  0  0  0  0  0  0
    7.7926   -1.5445    1.9028 C   0  0  0  0  0  0  0  0  0  0  0  0
    8.1203   -1.7454    0.5047 C   0  0  0  0  0  0  0  0  0  0  0  0
    9.2280   -2.2853   -0.1654 C   0  0  0  0  0  0  0  0  0  0  0  0
    9.2173   -2.3457   -1.5584 C   0  0  0  0  0  0  0  0  0  0  0  0
    8.1078   -1.8758   -2.2870 C   0  0  0  0  0  0  0  0  0  0  0  0
    6.9931   -1.3334   -1.6461 C   0  0  0  0  0  0  0  0  0  0  0  0
    7.0116   -1.2672   -0.2470 C   0  0  0  0  0  0  0  0  0  0  0  0
    3.5862   -0.8902    0.6410 C   0  0  0  0  0  0  0  0  0  0  0  0
    2.3356   -0.3810    0.2965 C   0  0  0  0  0  0  0  0  0  0  0  0
    2.2878    0.7914   -0.4687 C   0  0  0  0  0  0  0  0  0  0  0  0
   -1.0690    2.0798   -0.1566 C   0  0  0  0  0  0  0  0  0  0  0  0
   -2.4056    1.7350    0.0272 C   0  0  0  0  0  0  0  0  0  0  0  0
   -4.6943   -1.1308   -0.5024 N   0  0  0  0  0  0  0  0  0  0  0  0
   -5.5824   -3.7167   -1.2415 C   0  0  0  0  0  0  0  0  0  0  0  0
   -6.0363   -4.9857   -1.6010 C   0  0  0  0  0  0  0  0  0  0  0  0
   -7.7329   -6.3270   -1.6914 H   0  0  0  0  0  0  0  0  0  0  0  0
   -9.3143   -4.6698   -0.7047 H   0  0  0  0  0  0  0  0  0  0  0  0
   -8.4955   -2.3991   -0.0631 H   0  0  0  0  0  0  0  0  0  0  0  0
   -9.0253    0.2862    1.0754 H   0  0  0  0  0  0  0  0  0  0  0  0
  -10.6204    1.9324    2.0674 H   0  0  0  0  0  0  0  0  0  0  0  0
   -9.8216    4.2090    2.6999 H   0  0  0  0  0  0  0  0  0  0  0  0
   -7.4336    4.8317    2.3393 H   0  0  0  0  0  0  0  0  0  0  0  0
   -5.8525    3.1730    1.3467 H   0  0  0  0  0  0  0  0  0  0  0  0
   -2.3467   -1.4289   -1.2236 H   0  0  0  0  0  0  0  0  0  0  0  0
    0.0416   -0.8097   -1.5933 H   0  0  0  0  0  0  0  0  0  0  0  0
   -0.1576    3.6328   -2.3188 H   0  0  0  0  0  0  0  0  0  0  0  0
    1.1172    5.4493   -3.4353 H   0  0  0  0  0  0  0  0  0  0  0  0
    3.6007    5.4909   -3.3825 H   0  0  0  0  0  0  0  0  0  0  0  0
    4.8693    3.6887   -2.2178 H   0  0  0  0  0  0  0  0  0  0  0  0
    5.6504    1.4567   -0.7573 H   0  0  0  0  0  0  0  0  0  0  0  0
    4.8997   -0.1400    3.1685 H   0  0  0  0  0  0  0  0  0  0  0  0
    6.1238   -0.6062    5.2866 H   0  0  0  0  0  0  0  0  0  0  0  0
    8.3755   -1.6556    5.2559 H   0  0  0  0  0  0  0  0  0  0  0  0
    9.4630   -2.2527    3.0946 H   0  0  0  0  0  0  0  0  0  0  0  0
   10.0878   -2.6563    0.3984 H   0  0  0  0  0  0  0  0  0  0  0  0
   10.0747   -2.7634   -2.0915 H   0  0  0  0  0  0  0  0  0  0  0  0
    8.1165   -1.9375   -3.3784 H   0  0  0  0  0  0  0  0  0  0  0  0
    6.1349   -0.9751   -2.2172 H   0  0  0  0  0  0  0  0  0  0  0  0
    3.6550   -1.8141    1.2186 H   0  0  0  0  0  0  0  0  0  0  0  0
    1.4257   -0.8918    0.6137 H   0  0  0  0  0  0  0  0  0  0  0  0
   -0.7044    3.0578    0.1625 H   0  0  0  0  0  0  0  0  0  0  0  0
   -3.1011    2.4415    0.4806 H   0  0  0  0  0  0  0  0  0  0  0  0
   -4.5392   -3.4348   -1.3855 H   0  0  0  0  0  0  0  0  0  0  0  0
   -5.3407   -5.7095   -2.0330 H   0  0  0  0  0  0  0  0  0  0  0  0
  1  2  2  0
  1 50  1  0
  1 51  1  0
  2  3  1  0
  2 52  1  0
  3  4  2  0
  3 53  1  0
  4  5  1  0
  4 49  1  0
  5  6  2  0
  5 48  1  0
  6  7  1  0
  7  8  1  0
  7 14  2  0
  8  9  2  0
  8 13  1  0
  9 10  1  0
  9 54  1  0
 10 11  2  0
 10 55  1  0
 11 12  1  0
 11 56  1  0
 12 13  2  0
 12 57  1  0
 13 58  1  0
 14 15  1  0
 15 16  1  0
 15 48  2  0
 16 17  2  0
 16 47  1  0
 17 18  1  0
 17 59  1  0
 18 19  2  0
 18 60  1  0
 19 20  1  0
 19 46  1  0
 20 21  1  0
 20 45  1  0
 21 22  2  0
 21 26  1  0
 22 23  1  0
 22 61  1  0
 23 24  2  0
 23 62  1  0
 24 25  1  0
 24 63  1  0
 25 26  2  0
 25 64  1  0
 26 27  1  0
 27 28  1  0
 27 45  2  0
 28 29  2  0
 28 65  1  0
 29 30  1  0
 29 43  1  0
 30 31  1  0
 30 42  1  0
 31 32  2  0
 31 36  1  0
 32 33  1  0
 32 66  1  0
 33 34  2  0
 33 67  1  0
 34 35  1  0
 34 68  1  0
 35 36  2  0
 35 69  1  0
 36 37  1  0
 37 38  1  0
 37 42  2  0
 38 39  2  0
 38 70  1  0
 39 40  1  0
 39 71  1  0
 40 41  2  0
 40 72  1  0
 41 42  1  0
 41 73  1  0
 43 44  2  0
 43 74  1  0
 44 45  1  0
 44 75  1  0
 46 47  2  0
 46 76  1  0
 47 77  1  0
 49 50  2  0
 49 78  1  0
 50 79  1  0
M  END

