
     RDKit          3D

 53 52  0  0  0  0  0  0  0  0999 V2000
    2.4193    0.2030   -1.1975 C   0  0  0  0  0  0  0  0  0  0  0  0
    1.8917   -0.5162    0.0585 C   0  0  1  0  0  0  0  0  0  0  0  0
    0.4029   -0.8238   -0.2099 C   0  0  0  0  0  0  0  0  0  0  0  0
    2.7102   -1.7750    0.6064 C   0  0  1  0  0  0  0  0  0  0  0  0
    2.1118   -2.0787    1.9985 C   0  0  0  0  0  0  0  0  0  0  0  0
    2.4158   -2.9888   -0.3084 C   0  0  0  0  0  0  0  0  0  0  0  0
    4.3198   -1.4914    0.6739 C   0  0  1  0  0  0  0  0  0  0  0  0
    4.9317   -1.7119   -0.7329 C   0  0  0  0  0  0  0  0  0  0  0  0
    4.5223   -0.0388    1.1439 C   0  0  0  0  0  0  0  0  0  0  0  0
    3.9401    0.4800    2.0683 O   0  0  0  0  0  0  0  0  0  0  0  0
    5.4736    0.6372    0.4485 O   0  0  0  0  0  0  0  0  0  0  0  0
    5.8066    1.9553    0.8933 C   0  0  0  0  0  0  0  0  0  0  0  0
    4.8545    2.9902    0.3112 C   0  0  0  0  0  0  0  0  0  0  0  0
    5.3195    4.2690    0.7611 O   0  0  0  0  0  0  0  0  0  0  0  0
    4.6617    5.6146    0.1465 P   0  0  1  0  0  0  0  0  0  0  0  0
    4.5837    5.7127   -1.3234 O   0  0  0  0  0  0  0  0  0  0  0  0
    3.2222    5.7174    0.8697 O   0  0  0  0  0  0  0  0  0  0  0  0
    5.5632    6.7185    0.9062 O   0  0  0  0  0  0  0  0  0  0  0  0
    5.2159   -2.3850    1.7270 C   0  0  1  0  0  0  0  0  0  0  0  0
    4.9737   -3.9036    1.5774 C   0  0  0  0  0  0  0  0  0  0  0  0
    6.7256   -2.1615    1.4383 C   0  0  0  0  0  0  0  0  0  0  0  0
    5.0336   -2.0205    3.2219 C   0  0  0  0  0  0  0  0  0  0  0  0
    1.7638    1.0604   -1.4207 H   0  0  0  0  0  0  0  0  0  0  0  0
    2.4000   -0.4475   -2.0875 H   0  0  0  0  0  0  0  0  0  0  0  0
    3.4366    0.6007   -1.0949 H   0  0  0  0  0  0  0  0  0  0  0  0
    1.9132    0.2199    0.8757 H   0  0  0  0  0  0  0  0  0  0  0  0
    0.2660   -1.4447   -1.1097 H   0  0  0  0  0  0  0  0  0  0  0  0
   -0.1351    0.1207   -0.3892 H   0  0  0  0  0  0  0  0  0  0  0  0
   -0.1041   -1.3253    0.6256 H   0  0  0  0  0  0  0  0  0  0  0  0
    1.0260   -2.2243    1.9198 H   0  0  0  0  0  0  0  0  0  0  0  0
    2.2913   -1.2538    2.6989 H   0  0  0  0  0  0  0  0  0  0  0  0
    2.5101   -3.0040    2.4307 H   0  0  0  0  0  0  0  0  0  0  0  0
    1.3658   -3.2943   -0.1941 H   0  0  0  0  0  0  0  0  0  0  0  0
    3.0272   -3.8625   -0.0567 H   0  0  0  0  0  0  0  0  0  0  0  0
    2.5733   -2.7693   -1.3738 H   0  0  0  0  0  0  0  0  0  0  0  0
    4.3129   -1.2816   -1.5242 H   0  0  0  0  0  0  0  0  0  0  0  0
    5.0311   -2.7832   -0.9483 H   0  0  0  0  0  0  0  0  0  0  0  0
    5.9223   -1.2575   -0.8216 H   0  0  0  0  0  0  0  0  0  0  0  0
    6.8285    2.1457    0.5374 H   0  0  0  0  0  0  0  0  0  0  0  0
    5.7825    2.0043    1.9913 H   0  0  0  0  0  0  0  0  0  0  0  0
    3.8281    2.8135    0.6703 H   0  0  0  0  0  0  0  0  0  0  0  0
    4.8586    2.9535   -0.7904 H   0  0  0  0  0  0  0  0  0  0  0  0
    3.2755    5.7144    1.8372 H   0  0  0  0  0  0  0  0  0  0  0  0
    5.9985    7.2971    0.2627 H   0  0  0  0  0  0  0  0  0  0  0  0
    5.1185   -4.2545    0.5454 H   0  0  0  0  0  0  0  0  0  0  0  0
    3.9769   -4.2190    1.9112 H   0  0  0  0  0  0  0  0  0  0  0  0
    5.7063   -4.4402    2.2017 H   0  0  0  0  0  0  0  0  0  0  0  0
    7.0462   -2.5916    0.4797 H   0  0  0  0  0  0  0  0  0  0  0  0
    7.3142   -2.6573    2.2259 H   0  0  0  0  0  0  0  0  0  0  0  0
    7.0028   -1.0975    1.4419 H   0  0  0  0  0  0  0  0  0  0  0  0
    4.0069   -2.1268    3.5828 H   0  0  0  0  0  0  0  0  0  0  0  0
    5.3555   -0.9940    3.4434 H   0  0  0  0  0  0  0  0  0  0  0  0
    5.6649   -2.6962    3.8211 H   0  0  0  0  0  0  0  0  0  0  0  0
  1  2  1  0
  1 23  1  0
  1 24  1  0
  1 25  1  0
  2  3  1  0
  2  4  1  0
  2 26  1  1
  3 27  1  0
  3 28  1  0
  3 29  1  0
  4  5  1  1
  4  6  1  0
  4  7  1  0
  5 30  1  0
  5 31  1  0
  5 32  1  0
  6 33  1  0
  6 34  1  0
  6 35  1  0
  7  8  1  0
  7  9  1  1
  7 19  1  0
  8 36  1  0
  8 37  1  0
  8 38  1  0
  9 10  2  0
  9 11  1  0
 11 12  1  0
 12 13  1  0
 12 39  1  0
 12 40  1  0
 13 14  1  0
 13 41  1  0
 13 42  1  0
 15 14  1  6
 15 16  2  0
 15 17  1  0
 15 18  1  0
 17 43  1  0
 18 44  1  0
 19 20  1  1
 19 21  1  0
 19 22  1  0
 20 45  1  0
 20 46  1  0
 20 47  1  0
 21 48  1  0
 21 49  1  0
 21 50  1  0
 22 51  1  0
 22 52  1  0
 22 53  1  0
M  END

