
     RDKit          3D

 50 52  0  0  0  0  0  0  0  0999 V2000
    7.0221    2.2831    2.1526 C   0  0  0  0  0  0  0  0  0  0  0  0
    5.9843    2.2317    1.0179 C   0  0  0  0  0  0  0  0  0  0  0  0
    4.5458    2.3298    1.4893 C   0  0  0  0  0  0  0  0  0  0  0  0
    3.8833    3.5633    1.4350 C   0  0  0  0  0  0  0  0  0  0  0  0
    2.5726    3.7187    1.8904 C   0  0  0  0  0  0  0  0  0  0  0  0
    1.8992    2.6143    2.4143 C   0  0  0  0  0  0  0  0  0  0  0  0
    2.5242    1.3683    2.4813 C   0  0  0  0  0  0  0  0  0  0  0  0
    3.8452    1.2182    2.0238 C   0  0  0  0  0  0  0  0  0  0  0  0
    4.5125   -0.0278    2.0692 N   0  0  0  0  0  0  0  0  0  0  0  0
    4.0792   -1.2367    2.5540 C   0  0  0  0  0  0  0  0  0  0  0  0
    2.9852   -1.4372    3.0535 O   0  0  0  0  0  0  0  0  0  0  0  0
    5.1015   -2.3704    2.4319 C   0  0  1  0  0  0  0  0  0  0  0  0
    5.4544   -3.0022    3.7867 C   0  0  0  0  0  0  0  0  0  0  0  0
    5.7984   -4.4497    3.4502 C   0  0  0  0  0  0  0  0  0  0  0  0
    6.4337   -5.2184    4.1383 O   0  0  0  0  0  0  0  0  0  0  0  0
    5.2333   -4.7271    2.2124 N   0  0  0  0  0  0  0  0  0  0  0  0
    5.3550   -5.9701    1.5446 C   0  0  0  0  0  0  0  0  0  0  0  0
    6.5678   -6.6789    1.5688 C   0  0  0  0  0  0  0  0  0  0  0  0
    6.7470   -7.8951    0.8988 C   0  0  0  0  0  0  0  0  0  0  0  0
    8.0626   -8.6262    0.9556 C   0  0  0  0  0  0  0  0  0  0  0  0
    5.6547   -8.3904    0.1638 C   0  0  0  0  0  0  0  0  0  0  0  0
    5.8082   -9.8956   -0.7240 Cl  0  0  0  0  0  0  0  0  0  0  0  0
    4.4372   -7.7141    0.1221 C   0  0  0  0  0  0  0  0  0  0  0  0
    4.2735   -6.5154    0.8221 C   0  0  0  0  0  0  0  0  0  0  0  0
    3.0608   -5.8754    0.7709 O   0  0  0  0  0  0  0  0  0  0  0  0
    2.1508   -6.2125    1.8098 C   0  0  0  0  0  0  0  0  0  0  0  0
    4.5318   -3.5705    1.6416 C   0  0  0  0  0  0  0  0  0  0  0  0
    8.0477    2.2172    1.7552 H   0  0  0  0  0  0  0  0  0  0  0  0
    6.8853    1.4615    2.8742 H   0  0  0  0  0  0  0  0  0  0  0  0
    6.9349    3.2251    2.7157 H   0  0  0  0  0  0  0  0  0  0  0  0
    6.1356    1.3169    0.4140 H   0  0  0  0  0  0  0  0  0  0  0  0
    6.1778    3.0613    0.3198 H   0  0  0  0  0  0  0  0  0  0  0  0
    4.4164    4.4236    1.0196 H   0  0  0  0  0  0  0  0  0  0  0  0
    2.0834    4.6939    1.8332 H   0  0  0  0  0  0  0  0  0  0  0  0
    0.8724    2.7147    2.7753 H   0  0  0  0  0  0  0  0  0  0  0  0
    2.0069    0.5021    2.8861 H   0  0  0  0  0  0  0  0  0  0  0  0
    5.4451   -0.0303    1.6782 H   0  0  0  0  0  0  0  0  0  0  0  0
    6.0259   -2.0208    1.9423 H   0  0  0  0  0  0  0  0  0  0  0  0
    4.5726   -2.9989    4.4502 H   0  0  0  0  0  0  0  0  0  0  0  0
    6.2864   -2.5223    4.3198 H   0  0  0  0  0  0  0  0  0  0  0  0
    7.3963   -6.2710    2.1464 H   0  0  0  0  0  0  0  0  0  0  0  0
    8.7894   -8.0812    1.5740 H   0  0  0  0  0  0  0  0  0  0  0  0
    8.4902   -8.7597   -0.0515 H   0  0  0  0  0  0  0  0  0  0  0  0
    7.9374   -9.6365    1.3781 H   0  0  0  0  0  0  0  0  0  0  0  0
    3.5970   -8.1110   -0.4487 H   0  0  0  0  0  0  0  0  0  0  0  0
    1.2323   -5.6361    1.6320 H   0  0  0  0  0  0  0  0  0  0  0  0
    2.5536   -5.9531    2.8052 H   0  0  0  0  0  0  0  0  0  0  0  0
    1.9101   -7.2904    1.7972 H   0  0  0  0  0  0  0  0  0  0  0  0
    3.4448   -3.6351    1.7932 H   0  0  0  0  0  0  0  0  0  0  0  0
    4.7211   -3.4999    0.5604 H   0  0  0  0  0  0  0  0  0  0  0  0
  1  2  1  0
  1 28  1  0
  1 29  1  0
  1 30  1  0
  2  3  1  0
  2 31  1  0
  2 32  1  0
  3  4  2  0
  3  8  1  0
  4  5  1  0
  4 33  1  0
  5  6  2  0
  5 34  1  0
  6  7  1  0
  6 35  1  0
  7  8  2  0
  7 36  1  0
  8  9  1  0
  9 10  1  0
  9 37  1  0
 10 11  2  0
 10 12  1  0
 12 13  1  0
 12 27  1  0
 12 38  1  6
 13 14  1  0
 13 39  1  0
 13 40  1  0
 14 15  2  0
 14 16  1  0
 16 17  1  0
 16 27  1  0
 17 18  2  0
 17 24  1  0
 18 19  1  0
 18 41  1  0
 19 20  1  0
 19 21  2  0
 20 42  1  0
 20 43  1  0
 20 44  1  0
 21 22  1  0
 21 23  1  0
 23 24  2  0
 23 45  1  0
 24 25  1  0
 25 26  1  0
 26 46  1  0
 26 47  1  0
 26 48  1  0
 27 49  1  0
 27 50  1  0
M  END

