
     RDKit          3D

 35 35  0  0  0  0  0  0  0  0999 V2000
    2.8992   -0.5582   -0.7019 C   0  0  0  0  0  0  0  0  0  0  0  0
    2.4602    0.7071    0.0323 C   0  0  0  0  0  0  0  0  0  0  0  0
    3.1296    0.9200    1.4107 C   0  0  1  0  0  0  0  0  0  0  0  0
    2.7561   -0.1447    2.3646 C   0  0  0  0  0  0  0  0  0  0  0  0
    2.4664   -1.0044    3.0856 N   0  0  0  0  0  0  0  0  0  0  0  0
    4.5747    1.0521    1.3465 N   0  0  0  0  0  0  0  0  0  0  0  0
    5.1952    2.2672    1.5558 C   0  0  0  0  0  0  0  0  0  0  0  0
    4.5369    3.2772    1.7697 O   0  0  0  0  0  0  0  0  0  0  0  0
    6.6865    2.2021    1.4850 C   0  0  1  0  0  0  0  0  0  0  0  0
    7.5635    3.3203    0.8945 C   0  0  1  0  0  0  0  0  0  0  0  0
    8.7064    2.8783   -0.0108 C   0  0  0  0  0  0  0  0  0  0  0  0
    6.9238    4.6077    0.3937 C   0  0  0  0  0  0  0  0  0  0  0  0
    7.6185    3.0356    2.3822 C   0  0  1  0  0  0  0  0  0  0  0  0
    7.0343    4.0380    3.3678 C   0  0  0  0  0  0  0  0  0  0  0  0
    8.8161    2.3051    2.9769 C   0  0  0  0  0  0  0  0  0  0  0  0
    2.3838   -0.6447   -1.6707 H   0  0  0  0  0  0  0  0  0  0  0  0
    2.6689   -1.4653   -0.1197 H   0  0  0  0  0  0  0  0  0  0  0  0
    3.9818   -0.5496   -0.9091 H   0  0  0  0  0  0  0  0  0  0  0  0
    1.3679    0.6988    0.1848 H   0  0  0  0  0  0  0  0  0  0  0  0
    2.6896    1.6018   -0.5690 H   0  0  0  0  0  0  0  0  0  0  0  0
    2.7746    1.8796    1.8214 H   0  0  0  0  0  0  0  0  0  0  0  0
    5.1363    0.2219    1.2041 H   0  0  0  0  0  0  0  0  0  0  0  0
    7.0616    1.1938    1.2785 H   0  0  0  0  0  0  0  0  0  0  0  0
    8.3523    2.7829   -1.0507 H   0  0  0  0  0  0  0  0  0  0  0  0
    9.1454    1.9137    0.2775 H   0  0  0  0  0  0  0  0  0  0  0  0
    9.5149    3.6290   -0.0067 H   0  0  0  0  0  0  0  0  0  0  0  0
    6.6627    4.5094   -0.6733 H   0  0  0  0  0  0  0  0  0  0  0  0
    7.6409    5.4415    0.4813 H   0  0  0  0  0  0  0  0  0  0  0  0
    6.0067    4.8681    0.9314 H   0  0  0  0  0  0  0  0  0  0  0  0
    6.0861    4.4686    3.0307 H   0  0  0  0  0  0  0  0  0  0  0  0
    7.7562    4.8530    3.5452 H   0  0  0  0  0  0  0  0  0  0  0  0
    6.8461    3.5477    4.3373 H   0  0  0  0  0  0  0  0  0  0  0  0
    9.2225    1.5237    2.3207 H   0  0  0  0  0  0  0  0  0  0  0  0
    8.5332    1.8243    3.9278 H   0  0  0  0  0  0  0  0  0  0  0  0
    9.6311    3.0156    3.1970 H   0  0  0  0  0  0  0  0  0  0  0  0
  1  2  1  0
  1 16  1  0
  1 17  1  0
  1 18  1  0
  2  3  1  0
  2 19  1  0
  2 20  1  0
  3  4  1  0
  3  6  1  0
  3 21  1  1
  4  5  3  0
  6  7  1  0
  6 22  1  0
  7  8  2  0
  7  9  1  0
  9 10  1  0
  9 13  1  0
  9 23  1  6
 10 11  1  6
 10 12  1  0
 10 13  1  0
 11 24  1  0
 11 25  1  0
 11 26  1  0
 12 27  1  0
 12 28  1  0
 12 29  1  0
 13 14  1  1
 13 15  1  0
 14 30  1  0
 14 31  1  0
 14 32  1  0
 15 33  1  0
 15 34  1  0
 15 35  1  0
M  END

