
     RDKit          3D

 56 59  0  0  0  0  0  0  0  0999 V2000
    6.7215   -5.6077    3.3551 C   0  0  0  0  0  0  0  0  0  0  0  0
    6.3829   -5.4118    1.9982 O   0  0  0  0  0  0  0  0  0  0  0  0
    7.2965   -5.7087    1.0292 C   0  0  0  0  0  0  0  0  0  0  0  0
    8.5862   -6.1776    1.2690 C   0  0  0  0  0  0  0  0  0  0  0  0
    9.4338   -6.4484    0.1870 C   0  0  0  0  0  0  0  0  0  0  0  0
   11.0493   -7.0380    0.5408 Cl  0  0  0  0  0  0  0  0  0  0  0  0
    9.0303   -6.2640   -1.1411 C   0  0  0  0  0  0  0  0  0  0  0  0
    9.9447   -6.5594   -2.3015 C   0  0  0  0  0  0  0  0  0  0  0  0
    7.7249   -5.7885   -1.3588 C   0  0  0  0  0  0  0  0  0  0  0  0
    6.8541   -5.5081   -0.3020 C   0  0  0  0  0  0  0  0  0  0  0  0
    5.5418   -5.0311   -0.4510 N   0  0  0  0  0  0  0  0  0  0  0  0
    4.8436   -4.7948   -1.6014 C   0  0  0  0  0  0  0  0  0  0  0  0
    5.2830   -4.9088   -2.7300 O   0  0  0  0  0  0  0  0  0  0  0  0
    3.4235   -4.2311   -1.3668 C   0  0  1  0  0  0  0  0  0  0  0  0
    2.5115   -4.3996   -2.5710 C   0  0  0  0  0  0  0  0  0  0  0  0
    2.8380   -4.7002   -0.1227 O   0  0  0  0  0  0  0  0  0  0  0  0
    2.5710   -6.0345    0.0153 C   0  0  0  0  0  0  0  0  0  0  0  0
    2.8750   -6.8324   -0.8388 O   0  0  0  0  0  0  0  0  0  0  0  0
    1.9085   -6.3993    1.3003 C   0  0  0  0  0  0  0  0  0  0  0  0
    1.6950   -7.7721    1.4726 C   0  0  0  0  0  0  0  0  0  0  0  0
    1.0890   -8.2919    2.6113 C   0  0  0  0  0  0  0  0  0  0  0  0
    0.6724   -7.4244    3.6213 C   0  0  0  0  0  0  0  0  0  0  0  0
    0.8554   -6.0253    3.5077 C   0  0  0  0  0  0  0  0  0  0  0  0
    1.4866   -5.4794    2.3259 C   0  0  0  0  0  0  0  0  0  0  0  0
    1.6615   -4.1520    2.2161 N   0  0  0  0  0  0  0  0  0  0  0  0
    0.4008   -5.1317    4.5899 C   0  0  0  0  0  0  0  0  0  0  0  0
    0.5330   -3.9037    4.5496 O   0  0  0  0  0  0  0  0  0  0  0  0
   -0.2501   -5.7415    5.7914 C   0  0  0  0  0  0  0  0  0  0  0  0
   -0.6883   -4.8992    6.8240 C   0  0  0  0  0  0  0  0  0  0  0  0
   -1.2984   -5.4370    7.9567 C   0  0  0  0  0  0  0  0  0  0  0  0
   -1.4777   -6.8227    8.0715 C   0  0  0  0  0  0  0  0  0  0  0  0
   -1.0454   -7.6673    7.0505 C   0  0  0  0  0  0  0  0  0  0  0  0
   -0.4315   -7.1322    5.9089 C   0  0  0  0  0  0  0  0  0  0  0  0
    0.0240   -8.0452    4.8272 C   0  0  0  0  0  0  0  0  0  0  0  0
   -0.1202   -9.2533    4.9096 O   0  0  0  0  0  0  0  0  0  0  0  0
    5.8399   -5.3204    3.9431 H   0  0  0  0  0  0  0  0  0  0  0  0
    7.5766   -4.9767    3.6555 H   0  0  0  0  0  0  0  0  0  0  0  0
    6.9650   -6.6643    3.5635 H   0  0  0  0  0  0  0  0  0  0  0  0
    8.9521   -6.3406    2.2811 H   0  0  0  0  0  0  0  0  0  0  0  0
   10.8625   -5.9506   -2.2534 H   0  0  0  0  0  0  0  0  0  0  0  0
    9.4428   -6.3548   -3.2575 H   0  0  0  0  0  0  0  0  0  0  0  0
   10.2682   -7.6132   -2.2978 H   0  0  0  0  0  0  0  0  0  0  0  0
    7.3671   -5.6321   -2.3745 H   0  0  0  0  0  0  0  0  0  0  0  0
    5.0552   -4.8883    0.4282 H   0  0  0  0  0  0  0  0  0  0  0  0
    3.5575   -3.1552   -1.1649 H   0  0  0  0  0  0  0  0  0  0  0  0
    2.3695   -5.4580   -2.8198 H   0  0  0  0  0  0  0  0  0  0  0  0
    2.9761   -3.9032   -3.4337 H   0  0  0  0  0  0  0  0  0  0  0  0
    1.5361   -3.9308   -2.3721 H   0  0  0  0  0  0  0  0  0  0  0  0
    2.0275   -8.4318    0.6692 H   0  0  0  0  0  0  0  0  0  0  0  0
    0.9284   -9.3623    2.7387 H   0  0  0  0  0  0  0  0  0  0  0  0
    1.3204   -3.5764    2.9867 H   0  0  0  0  0  0  0  0  0  0  0  0
    2.0881   -3.7830    1.3772 H   0  0  0  0  0  0  0  0  0  0  0  0
   -0.5384   -3.8241    6.7129 H   0  0  0  0  0  0  0  0  0  0  0  0
   -1.6379   -4.7748    8.7573 H   0  0  0  0  0  0  0  0  0  0  0  0
   -1.9565   -7.2405    8.9606 H   0  0  0  0  0  0  0  0  0  0  0  0
   -1.1708   -8.7500    7.1098 H   0  0  0  0  0  0  0  0  0  0  0  0
  1  2  1  0
  1 36  1  0
  1 37  1  0
  1 38  1  0
  2  3  1  0
  3  4  2  0
  3 10  1  0
  4  5  1  0
  4 39  1  0
  5  6  1  0
  5  7  2  0
  7  8  1  0
  7  9  1  0
  8 40  1  0
  8 41  1  0
  8 42  1  0
  9 10  2  0
  9 43  1  0
 10 11  1  0
 11 12  1  0
 11 44  1  0
 12 13  2  0
 12 14  1  0
 14 15  1  0
 14 16  1  0
 14 45  1  1
 15 46  1  0
 15 47  1  0
 15 48  1  0
 16 17  1  0
 17 18  2  0
 17 19  1  0
 19 20  2  0
 19 24  1  0
 20 21  1  0
 20 49  1  0
 21 22  2  0
 21 50  1  0
 22 23  1  0
 22 34  1  0
 23 24  2  0
 23 26  1  0
 24 25  1  0
 25 51  1  0
 25 52  1  0
 26 27  2  0
 26 28  1  0
 28 29  2  0
 28 33  1  0
 29 30  1  0
 29 53  1  0
 30 31  2  0
 30 54  1  0
 31 32  1  0
 31 55  1  0
 32 33  2  0
 32 56  1  0
 33 34  1  0
 34 35  2  0
M  END

