
     RDKit          3D

 44 46  0  0  0  0  0  0  0  0999 V2000
   -0.4653   -1.8173   -6.8559 C   0  0  0  0  0  0  0  0  0  0  0  0
    0.2806   -1.1431   -7.8429 O   0  0  0  0  0  0  0  0  0  0  0  0
    1.2978   -0.3208   -7.4746 C   0  0  0  0  0  0  0  0  0  0  0  0
    1.6710   -0.0865   -6.1289 C   0  0  0  0  0  0  0  0  0  0  0  0
    2.7259    0.7708   -5.8127 C   0  0  0  0  0  0  0  0  0  0  0  0
    3.4241    1.4030   -6.8515 C   0  0  0  0  0  0  0  0  0  0  0  0
    4.5429    2.3226   -6.9527 C   0  0  0  0  0  0  0  0  0  0  0  0
    5.3523    2.8997   -5.8227 C   0  0  0  0  0  0  0  0  0  0  0  0
    4.5102    3.8379   -4.9745 C   0  0  0  0  0  0  0  0  0  0  0  0
    3.8113    3.5066   -4.0517 O   0  0  0  0  0  0  0  0  0  0  0  0
    4.6032    5.1161   -5.4162 O   0  0  0  0  0  0  0  0  0  0  0  0
    3.7382    6.1075   -4.8279 C   0  0  1  0  0  0  0  0  0  0  0  0
    4.3525    6.7064   -3.5678 C   0  0  0  0  0  0  0  0  0  0  0  0
    3.4401    7.1930   -5.8735 C   0  0  0  0  0  0  0  0  0  0  0  0
    2.6784    8.1012   -5.5973 O   0  0  0  0  0  0  0  0  0  0  0  0
    4.0983    7.0414   -7.0658 N   0  0  0  0  0  0  0  0  0  0  0  0
    4.0440    7.8618   -8.1927 C   0  0  0  0  0  0  0  0  0  0  0  0
    3.1875    8.9676   -8.3252 C   0  0  0  0  0  0  0  0  0  0  0  0
    3.2116    9.7101   -9.5073 C   0  0  0  0  0  0  0  0  0  0  0  0
    4.0847    9.3381  -10.5288 C   0  0  0  0  0  0  0  0  0  0  0  0
    4.9081    8.2911  -10.4066 N   0  0  0  0  0  0  0  0  0  0  0  0
    4.8888    7.5968   -9.2996 C   0  0  0  0  0  0  0  0  0  0  0  0
    6.0264    6.2389   -9.1899 Cl  0  0  0  0  0  0  0  0  0  0  0  0
    4.7047    2.5521   -8.2864 C   0  0  0  0  0  0  0  0  0  0  0  0
    3.8053    1.8580   -9.0468 O   0  0  0  0  0  0  0  0  0  0  0  0
    3.0235    1.1539   -8.1814 C   0  0  0  0  0  0  0  0  0  0  0  0
    1.9791    0.3079   -8.5282 C   0  0  0  0  0  0  0  0  0  0  0  0
   -1.2187   -2.4139   -7.3880 H   0  0  0  0  0  0  0  0  0  0  0  0
   -0.9821   -1.1157   -6.1762 H   0  0  0  0  0  0  0  0  0  0  0  0
    0.1647   -2.4959   -6.2525 H   0  0  0  0  0  0  0  0  0  0  0  0
    1.1288   -0.5733   -5.3187 H   0  0  0  0  0  0  0  0  0  0  0  0
    2.9870    0.9605   -4.7697 H   0  0  0  0  0  0  0  0  0  0  0  0
    6.2227    3.4429   -6.2162 H   0  0  0  0  0  0  0  0  0  0  0  0
    5.7064    2.0956   -5.1588 H   0  0  0  0  0  0  0  0  0  0  0  0
    2.7794    5.6270   -4.5776 H   0  0  0  0  0  0  0  0  0  0  0  0
    5.3463    7.1285   -3.7840 H   0  0  0  0  0  0  0  0  0  0  0  0
    4.4469    5.9343   -2.7917 H   0  0  0  0  0  0  0  0  0  0  0  0
    3.7001    7.5095   -3.1976 H   0  0  0  0  0  0  0  0  0  0  0  0
    4.7135    6.2342   -7.1318 H   0  0  0  0  0  0  0  0  0  0  0  0
    2.5266    9.2208   -7.4984 H   0  0  0  0  0  0  0  0  0  0  0  0
    2.5521   10.5721   -9.6286 H   0  0  0  0  0  0  0  0  0  0  0  0
    4.1308    9.8932  -11.4712 H   0  0  0  0  0  0  0  0  0  0  0  0
    5.3998    3.1813   -8.8374 H   0  0  0  0  0  0  0  0  0  0  0  0
    1.6854    0.1277   -9.5623 H   0  0  0  0  0  0  0  0  0  0  0  0
  1  2  1  0
  1 28  1  0
  1 29  1  0
  1 30  1  0
  2  3  1  0
  3  4  2  0
  3 27  1  0
  4  5  1  0
  4 31  1  0
  5  6  2  0
  5 32  1  0
  6  7  1  0
  6 26  1  0
  7  8  1  0
  7 24  2  0
  8  9  1  0
  8 33  1  0
  8 34  1  0
  9 10  2  0
  9 11  1  0
 11 12  1  0
 12 13  1  0
 12 14  1  0
 12 35  1  1
 13 36  1  0
 13 37  1  0
 13 38  1  0
 14 15  2  0
 14 16  1  0
 16 17  1  0
 16 39  1  0
 17 18  2  0
 17 22  1  0
 18 19  1  0
 18 40  1  0
 19 20  2  0
 19 41  1  0
 20 21  1  0
 20 42  1  0
 21 22  2  0
 22 23  1  0
 24 25  1  0
 24 43  1  0
 25 26  1  0
 26 27  2  0
 27 44  1  0
M  END

