
     RDKit          3D

 93105  0  0  0  0  0  0  0  0999 V2000
    2.1398   -4.0105    0.1467 N   0  0  0  0  0  0  0  0  0  0  0  0
    1.7667   -2.9130    0.1000 C   0  0  0  0  0  0  0  0  0  0  0  0
    1.3201   -1.5500    0.0788 C   0  0  0  0  0  0  0  0  0  0  0  0
    2.2334   -0.5316    0.4300 C   0  0  0  0  0  0  0  0  0  0  0  0
    3.5923   -0.7996    0.6781 N   0  0  0  0  0  0  0  0  0  0  0  0
    4.2392   -0.6434    1.9124 C   0  0  0  0  0  0  0  0  0  0  0  0
    3.6996   -0.3177    3.1596 C   0  0  0  0  0  0  0  0  0  0  0  0
    4.5732   -0.2459    4.2461 C   0  0  0  0  0  0  0  0  0  0  0  0
    5.9487   -0.4988    4.0951 C   0  0  0  0  0  0  0  0  0  0  0  0
    6.4782   -0.8330    2.8488 C   0  0  0  0  0  0  0  0  0  0  0  0
    5.6221   -0.9080    1.7412 C   0  0  0  0  0  0  0  0  0  0  0  0
    5.8210   -1.2253    0.3384 C   0  0  0  0  0  0  0  0  0  0  0  0
    6.9476   -1.5514   -0.4297 C   0  0  0  0  0  0  0  0  0  0  0  0
    6.7939   -1.7837   -1.7961 C   0  0  0  0  0  0  0  0  0  0  0  0
    5.5279   -1.6886   -2.4016 C   0  0  0  0  0  0  0  0  0  0  0  0
    4.3906   -1.3666   -1.6588 C   0  0  0  0  0  0  0  0  0  0  0  0
    4.5509   -1.1451   -0.2884 C   0  0  0  0  0  0  0  0  0  0  0  0
    1.7493    0.7753    0.5256 C   0  0  0  0  0  0  0  0  0  0  0  0
    2.6047    1.7462    0.8241 F   0  0  0  0  0  0  0  0  0  0  0  0
    0.4051    1.1110    0.2910 C   0  0  0  0  0  0  0  0  0  0  0  0
    0.0321    2.4632    0.4063 N   0  0  0  0  0  0  0  0  0  0  0  0
    0.1633    3.2404    1.5709 C   0  0  0  0  0  0  0  0  0  0  0  0
    0.5892    2.8653    2.8487 C   0  0  0  0  0  0  0  0  0  0  0  0
    0.5988    3.8414    3.8469 C   0  0  0  0  0  0  0  0  0  0  0  0
    0.1906    5.1608    3.5825 C   0  0  0  0  0  0  0  0  0  0  0  0
   -0.2341    5.5286    2.3062 C   0  0  0  0  0  0  0  0  0  0  0  0
   -0.2482    4.5665    1.2870 C   0  0  0  0  0  0  0  0  0  0  0  0
   -0.6124    4.6053   -0.1170 C   0  0  0  0  0  0  0  0  0  0  0  0
   -1.0472    5.6289   -0.9700 C   0  0  0  0  0  0  0  0  0  0  0  0
   -1.2676    5.3420   -2.3166 C   0  0  0  0  0  0  0  0  0  0  0  0
   -1.0453    4.0469   -2.8167 C   0  0  0  0  0  0  0  0  0  0  0  0
   -0.6134    3.0111   -1.9860 C   0  0  0  0  0  0  0  0  0  0  0  0
   -0.4167    3.2989   -0.6334 C   0  0  0  0  0  0  0  0  0  0  0  0
   -0.5047    0.0849   -0.0912 C   0  0  0  0  0  0  0  0  0  0  0  0
   -1.8606    0.3967   -0.3253 N   0  0  0  0  0  0  0  0  0  0  0  0
   -2.5579    0.2381   -1.5381 C   0  0  0  0  0  0  0  0  0  0  0  0
   -2.0966   -0.1964   -2.7837 C   0  0  0  0  0  0  0  0  0  0  0  0
   -3.0045   -0.2278   -3.8441 C   0  0  0  0  0  0  0  0  0  0  0  0
   -4.3414    0.1721   -3.6743 C   0  0  0  0  0  0  0  0  0  0  0  0
   -4.7929    0.6202   -2.4337 C   0  0  0  0  0  0  0  0  0  0  0  0
   -3.8992    0.6589   -1.3547 C   0  0  0  0  0  0  0  0  0  0  0  0
   -4.0262    1.0844    0.0255 C   0  0  0  0  0  0  0  0  0  0  0  0
   -5.0983    1.5695    0.7868 C   0  0  0  0  0  0  0  0  0  0  0  0
   -4.8938    1.8738    2.1320 C   0  0  0  0  0  0  0  0  0  0  0  0
   -3.6305    1.6892    2.7205 C   0  0  0  0  0  0  0  0  0  0  0  0
   -2.5487    1.2058    1.9818 C   0  0  0  0  0  0  0  0  0  0  0  0
   -2.7553    0.9159    0.6301 C   0  0  0  0  0  0  0  0  0  0  0  0
   -0.0341   -1.2505   -0.2103 C   0  0  0  0  0  0  0  0  0  0  0  0
   -0.8969   -2.3088   -0.5706 N   0  0  0  0  0  0  0  0  0  0  0  0
   -1.9651   -2.8084    0.1952 C   0  0  0  0  0  0  0  0  0  0  0  0
   -2.4186   -2.4106    1.4554 C   0  0  0  0  0  0  0  0  0  0  0  0
   -3.4986   -3.1023    2.0068 C   0  0  0  0  0  0  0  0  0  0  0  0
   -4.1082   -4.1707    1.3255 C   0  0  0  0  0  0  0  0  0  0  0  0
   -3.6380   -4.5760    0.0770 C   0  0  0  0  0  0  0  0  0  0  0  0
   -2.5545   -3.8969   -0.4972 C   0  0  0  0  0  0  0  0  0  0  0  0
   -1.8037   -4.0752   -1.7256 C   0  0  0  0  0  0  0  0  0  0  0  0
   -1.9100   -4.9696   -2.7997 C   0  0  0  0  0  0  0  0  0  0  0  0
   -1.0026   -4.8773   -3.8544 C   0  0  0  0  0  0  0  0  0  0  0  0
    0.0079   -3.8996   -3.8438 C   0  0  0  0  0  0  0  0  0  0  0  0
    0.1323   -2.9964   -2.7864 C   0  0  0  0  0  0  0  0  0  0  0  0
   -0.7810   -3.0937   -1.7318 C   0  0  0  0  0  0  0  0  0  0  0  0
    2.6311   -0.1344    3.2880 H   0  0  0  0  0  0  0  0  0  0  0  0
    4.1777    0.0076    5.2328 H   0  0  0  0  0  0  0  0  0  0  0  0
    6.6062   -0.4365    4.9654 H   0  0  0  0  0  0  0  0  0  0  0  0
    7.5460   -1.0363    2.7370 H   0  0  0  0  0  0  0  0  0  0  0  0
    7.9336   -1.6188    0.0365 H   0  0  0  0  0  0  0  0  0  0  0  0
    7.6641   -2.0398   -2.4049 H   0  0  0  0  0  0  0  0  0  0  0  0
    5.4292   -1.8709   -3.4745 H   0  0  0  0  0  0  0  0  0  0  0  0
    3.4130   -1.2929   -2.1383 H   0  0  0  0  0  0  0  0  0  0  0  0
    0.9134    1.8469    3.0690 H   0  0  0  0  0  0  0  0  0  0  0  0
    0.9338    3.5718    4.8516 H   0  0  0  0  0  0  0  0  0  0  0  0
    0.2096    5.9023    4.3846 H   0  0  0  0  0  0  0  0  0  0  0  0
   -0.5514    6.5541    2.1016 H   0  0  0  0  0  0  0  0  0  0  0  0
   -1.2020    6.6398   -0.5852 H   0  0  0  0  0  0  0  0  0  0  0  0
   -1.6074    6.1304   -2.9923 H   0  0  0  0  0  0  0  0  0  0  0  0
   -1.2128    3.8409   -3.8766 H   0  0  0  0  0  0  0  0  0  0  0  0
   -0.4380    2.0157   -2.3922 H   0  0  0  0  0  0  0  0  0  0  0  0
   -1.0641   -0.5086   -2.9367 H   0  0  0  0  0  0  0  0  0  0  0  0
   -2.6639   -0.5748   -4.8226 H   0  0  0  0  0  0  0  0  0  0  0  0
   -5.0286    0.1342   -4.5228 H   0  0  0  0  0  0  0  0  0  0  0  0
   -5.8289    0.9425   -2.3033 H   0  0  0  0  0  0  0  0  0  0  0  0
   -6.0827    1.7023    0.3312 H   0  0  0  0  0  0  0  0  0  0  0  0
   -5.7205    2.2552    2.7359 H   0  0  0  0  0  0  0  0  0  0  0  0
   -3.4857    1.9302    3.7764 H   0  0  0  0  0  0  0  0  0  0  0  0
   -1.5781    1.0670    2.4573 H   0  0  0  0  0  0  0  0  0  0  0  0
   -1.9515   -1.5899    1.9994 H   0  0  0  0  0  0  0  0  0  0  0  0
   -3.8739   -2.8037    2.9886 H   0  0  0  0  0  0  0  0  0  0  0  0
   -4.9521   -4.6915    1.7840 H   0  0  0  0  0  0  0  0  0  0  0  0
   -4.1015   -5.4171   -0.4444 H   0  0  0  0  0  0  0  0  0  0  0  0
   -2.6942   -5.7305   -2.8083 H   0  0  0  0  0  0  0  0  0  0  0  0
   -1.0726   -5.5715   -4.6949 H   0  0  0  0  0  0  0  0  0  0  0  0
    0.7153   -3.8462   -4.6751 H   0  0  0  0  0  0  0  0  0  0  0  0
    0.9260   -2.2471   -2.7891 H   0  0  0  0  0  0  0  0  0  0  0  0
  1  2  3  0
  2  3  1  0
  3  4  2  0
  3 48  1  0
  4  5  1  0
  4 18  1  0
  5  6  1  0
  5 17  1  0
  6  7  2  0
  6 11  1  0
  7  8  1  0
  7 62  1  0
  8  9  2  0
  8 63  1  0
  9 10  1  0
  9 64  1  0
 10 11  2  0
 10 65  1  0
 11 12  1  0
 12 13  1  0
 12 17  2  0
 13 14  2  0
 13 66  1  0
 14 15  1  0
 14 67  1  0
 15 16  2  0
 15 68  1  0
 16 17  1  0
 16 69  1  0
 18 19  1  0
 18 20  2  0
 20 21  1  0
 20 34  1  0
 21 22  1  0
 21 33  1  0
 22 23  2  0
 22 27  1  0
 23 24  1  0
 23 70  1  0
 24 25  2  0
 24 71  1  0
 25 26  1  0
 25 72  1  0
 26 27  2  0
 26 73  1  0
 27 28  1  0
 28 29  1  0
 28 33  2  0
 29 30  2  0
 29 74  1  0
 30 31  1  0
 30 75  1  0
 31 32  2  0
 31 76  1  0
 32 33  1  0
 32 77  1  0
 34 35  1  0
 34 48  2  0
 35 36  1  0
 35 47  1  0
 36 37  2  0
 36 41  1  0
 37 38  1  0
 37 78  1  0
 38 39  2  0
 38 79  1  0
 39 40  1  0
 39 80  1  0
 40 41  2  0
 40 81  1  0
 41 42  1  0
 42 43  1  0
 42 47  2  0
 43 44  2  0
 43 82  1  0
 44 45  1  0
 44 83  1  0
 45 46  2  0
 45 84  1  0
 46 47  1  0
 46 85  1  0
 48 49  1  0
 49 50  1  0
 49 61  1  0
 50 51  2  0
 50 55  1  0
 51 52  1  0
 51 86  1  0
 52 53  2  0
 52 87  1  0
 53 54  1  0
 53 88  1  0
 54 55  2  0
 54 89  1  0
 55 56  1  0
 56 57  1  0
 56 61  2  0
 57 58  2  0
 57 90  1  0
 58 59  1  0
 58 91  1  0
 59 60  2  0
 59 92  1  0
 60 61  1  0
 60 93  1  0
M  END

