
     RDKit          3D

 54 55  0  0  0  0  0  0  0  0999 V2000
    0.9532   -0.5322    0.5960 C   0  0  0  0  0  0  0  0  0  0  0  0
    2.3714   -0.3083    0.3916 N   0  0  0  0  0  0  0  0  0  0  0  0
    2.8424    0.9852    0.8583 C   0  0  0  0  0  0  0  0  0  0  0  0
    4.3763    1.1207    0.8018 C   0  0  1  0  0  0  0  0  0  0  0  0
    4.9614    0.9141   -0.6102 C   0  0  0  0  0  0  0  0  0  0  0  0
    4.6319    2.0717   -1.5587 C   0  0  0  0  0  0  0  0  0  0  0  0
    5.1750    3.4258   -1.0535 C   0  0  2  0  0  0  0  0  0  0  0  0
    6.7076    3.6375   -1.2467 C   0  0  1  0  0  0  0  0  0  0  0  0
    7.1987    3.2122   -2.6394 C   0  0  0  0  0  0  0  0  0  0  0  0
    7.0975    5.1051   -1.0063 C   0  0  0  0  0  0  0  0  0  0  0  0
    4.6632    3.6456    0.3946 C   0  0  0  0  0  0  0  0  0  0  0  0
    4.8453    2.4763    1.4017 C   0  0  2  0  0  0  0  0  0  0  0  0
    6.2519    2.3384    2.0295 C   0  0  0  0  0  0  0  0  0  0  0  0
    6.8179    3.5661    2.7580 C   0  0  0  0  0  0  0  0  0  0  0  0
    5.9847    4.0433    3.9637 C   0  0  0  0  0  0  0  0  0  0  0  0
    6.6303    5.1865    4.7163 C   0  0  0  0  0  0  0  0  0  0  0  0
    6.3632    6.5212    4.3703 C   0  0  0  0  0  0  0  0  0  0  0  0
    6.9885    7.5787    5.0371 C   0  0  0  0  0  0  0  0  0  0  0  0
    7.8967    7.3198    6.0679 C   0  0  0  0  0  0  0  0  0  0  0  0
    8.1719    5.9964    6.4253 C   0  0  0  0  0  0  0  0  0  0  0  0
    7.5443    4.9430    5.7547 C   0  0  0  0  0  0  0  0  0  0  0  0
    0.6601   -1.5057    0.1718 H   0  0  0  0  0  0  0  0  0  0  0  0
    0.2912    0.2457    0.1508 H   0  0  0  0  0  0  0  0  0  0  0  0
    0.7279   -0.5646    1.6760 H   0  0  0  0  0  0  0  0  0  0  0  0
    2.5943   -0.4249   -0.5952 H   0  0  0  0  0  0  0  0  0  0  0  0
    2.5365    1.0866    1.9151 H   0  0  0  0  0  0  0  0  0  0  0  0
    2.3521    1.8348    0.3289 H   0  0  0  0  0  0  0  0  0  0  0  0
    4.7626    0.3088    1.4417 H   0  0  0  0  0  0  0  0  0  0  0  0
    4.6079   -0.0440   -1.0274 H   0  0  0  0  0  0  0  0  0  0  0  0
    6.0564    0.8015   -0.5315 H   0  0  0  0  0  0  0  0  0  0  0  0
    3.5354    2.1597   -1.6566 H   0  0  0  0  0  0  0  0  0  0  0  0
    4.9977    1.8528   -2.5728 H   0  0  0  0  0  0  0  0  0  0  0  0
    4.6999    4.2094   -1.6743 H   0  0  0  0  0  0  0  0  0  0  0  0
    7.2511    3.0240   -0.5084 H   0  0  0  0  0  0  0  0  0  0  0  0
    6.6264    3.7192   -3.4360 H   0  0  0  0  0  0  0  0  0  0  0  0
    7.1175    2.1279   -2.8071 H   0  0  0  0  0  0  0  0  0  0  0  0
    8.2585    3.4827   -2.7740 H   0  0  0  0  0  0  0  0  0  0  0  0
    6.6205    5.7625   -1.7539 H   0  0  0  0  0  0  0  0  0  0  0  0
    8.1874    5.2424   -1.0925 H   0  0  0  0  0  0  0  0  0  0  0  0
    6.8013    5.4680   -0.0112 H   0  0  0  0  0  0  0  0  0  0  0  0
    3.5801    3.8416    0.3197 H   0  0  0  0  0  0  0  0  0  0  0  0
    5.0868    4.5688    0.8184 H   0  0  0  0  0  0  0  0  0  0  0  0
    4.1630    2.6998    2.2414 H   0  0  0  0  0  0  0  0  0  0  0  0
    6.9811    2.0206    1.2665 H   0  0  0  0  0  0  0  0  0  0  0  0
    6.2047    1.5026    2.7514 H   0  0  0  0  0  0  0  0  0  0  0  0
    6.9517    4.4085    2.0589 H   0  0  0  0  0  0  0  0  0  0  0  0
    7.8333    3.3203    3.1139 H   0  0  0  0  0  0  0  0  0  0  0  0
    5.8298    3.1918    4.6491 H   0  0  0  0  0  0  0  0  0  0  0  0
    4.9832    4.3555    3.6251 H   0  0  0  0  0  0  0  0  0  0  0  0
    5.6491    6.7347    3.5690 H   0  0  0  0  0  0  0  0  0  0  0  0
    6.7619    8.6099    4.7530 H   0  0  0  0  0  0  0  0  0  0  0  0
    8.3843    8.1452    6.5929 H   0  0  0  0  0  0  0  0  0  0  0  0
    8.8764    5.7827    7.2337 H   0  0  0  0  0  0  0  0  0  0  0  0
    7.7629    3.9109    6.0456 H   0  0  0  0  0  0  0  0  0  0  0  0
  1  2  1  0
  1 22  1  0
  1 23  1  0
  1 24  1  0
  2  3  1  0
  2 25  1  0
  3  4  1  0
  3 26  1  0
  3 27  1  0
  4  5  1  0
  4 12  1  0
  4 28  1  1
  5  6  1  0
  5 29  1  0
  5 30  1  0
  6  7  1  0
  6 31  1  0
  6 32  1  0
  7  8  1  0
  7 11  1  0
  7 33  1  6
  8  9  1  0
  8 10  1  0
  8 34  1  1
  9 35  1  0
  9 36  1  0
  9 37  1  0
 10 38  1  0
 10 39  1  0
 10 40  1  0
 11 12  1  0
 11 41  1  0
 11 42  1  0
 12 13  1  0
 12 43  1  1
 13 14  1  0
 13 44  1  0
 13 45  1  0
 14 15  1  0
 14 46  1  0
 14 47  1  0
 15 16  1  0
 15 48  1  0
 15 49  1  0
 16 17  2  0
 16 21  1  0
 17 18  1  0
 17 50  1  0
 18 19  2  0
 18 51  1  0
 19 20  1  0
 19 52  1  0
 20 21  2  0
 20 53  1  0
 21 54  1  0
M  END

