
     RDKit          3D

 52 55  0  0  0  0  0  0  0  0999 V2000
    9.2464    7.8559    4.4718 C   0  0  0  0  0  0  0  0  0  0  0  0
    9.6182    6.7239    5.4333 C   0  0  1  0  0  0  0  0  0  0  0  0
   10.7824    7.0892    6.3580 C   0  0  0  0  0  0  0  0  0  0  0  0
    8.4500    6.3073    6.2151 N   0  0  0  0  0  0  0  0  0  0  0  0
    7.8298    7.1577    7.0614 N   0  0  0  0  0  0  0  0  0  0  0  0
    6.8191    6.5099    7.6119 C   0  0  0  0  0  0  0  0  0  0  0  0
    6.7509    5.1681    7.1233 C   0  0  0  0  0  0  0  0  0  0  0  0
    5.9595    4.0232    7.2842 C   0  0  0  0  0  0  0  0  0  0  0  0
    6.3218    2.8796    6.5692 C   0  0  0  0  0  0  0  0  0  0  0  0
    5.4330    1.6679    6.6715 C   0  0  0  0  0  0  0  0  0  0  0  0
    4.2153    1.8060    6.6963 O   0  0  0  0  0  0  0  0  0  0  0  0
    6.0242    0.4284    6.7248 N   0  0  0  0  0  0  0  0  0  0  0  0
    7.3792    0.1677    7.2475 C   0  0  0  0  0  0  0  0  0  0  0  0
    7.4795   -1.3604    7.2741 C   0  0  0  0  0  0  0  0  0  0  0  0
    6.0353   -1.8177    7.5263 C   0  0  0  0  0  0  0  0  0  0  0  0
    5.1473   -0.7594    6.8440 C   0  0  2  0  0  0  0  0  0  0  0  0
    4.3010   -0.4885    7.4938 H   0  0  0  0  0  0  0  0  0  0  0  0
    4.5238   -1.1610    5.4825 C   0  0  1  0  0  0  0  0  0  0  0  0
    3.9405   -0.2793    5.1537 H   0  0  0  0  0  0  0  0  0  0  0  0
    5.5105   -1.5662    4.3540 C   0  0  0  0  0  0  0  0  0  0  0  0
    5.2446   -3.0612    4.1034 C   0  0  0  0  0  0  0  0  0  0  0  0
    3.7726   -3.1955    4.4870 C   0  0  0  0  0  0  0  0  0  0  0  0
    3.6473   -2.3314    5.6514 N   0  0  0  0  0  0  0  0  0  0  0  0
    2.2907   -2.0557    6.0665 C   0  0  0  0  0  0  0  0  0  0  0  0
    7.4261    2.9453    5.6746 C   0  0  0  0  0  0  0  0  0  0  0  0
    8.1798    4.0195    5.4799 N   0  0  0  0  0  0  0  0  0  0  0  0
    7.8400    5.0843    6.2100 C   0  0  0  0  0  0  0  0  0  0  0  0
   10.1159    8.1316    3.8550 H   0  0  0  0  0  0  0  0  0  0  0  0
    8.9185    8.7457    5.0304 H   0  0  0  0  0  0  0  0  0  0  0  0
    8.4307    7.5497    3.7991 H   0  0  0  0  0  0  0  0  0  0  0  0
    9.8806    5.8255    4.8536 H   0  0  0  0  0  0  0  0  0  0  0  0
   10.5160    7.9468    6.9944 H   0  0  0  0  0  0  0  0  0  0  0  0
   11.6700    7.3575    5.7642 H   0  0  0  0  0  0  0  0  0  0  0  0
   11.0483    6.2436    7.0108 H   0  0  0  0  0  0  0  0  0  0  0  0
    6.1746    7.0114    8.3338 H   0  0  0  0  0  0  0  0  0  0  0  0
    5.0801    4.0015    7.9317 H   0  0  0  0  0  0  0  0  0  0  0  0
    7.4858    0.5882    8.2651 H   0  0  0  0  0  0  0  0  0  0  0  0
    8.1605    0.6232    6.6248 H   0  0  0  0  0  0  0  0  0  0  0  0
    8.1852   -1.7093    8.0430 H   0  0  0  0  0  0  0  0  0  0  0  0
    7.8461   -1.7329    6.3049 H   0  0  0  0  0  0  0  0  0  0  0  0
    5.8307   -1.8261    8.6091 H   0  0  0  0  0  0  0  0  0  0  0  0
    5.8128   -2.8264    7.1529 H   0  0  0  0  0  0  0  0  0  0  0  0
    6.5590   -1.3479    4.5987 H   0  0  0  0  0  0  0  0  0  0  0  0
    5.2783   -0.9890    3.4455 H   0  0  0  0  0  0  0  0  0  0  0  0
    5.8636   -3.6897    4.7641 H   0  0  0  0  0  0  0  0  0  0  0  0
    5.4472   -3.3673    3.0659 H   0  0  0  0  0  0  0  0  0  0  0  0
    3.4732   -4.2300    4.7298 H   0  0  0  0  0  0  0  0  0  0  0  0
    3.1242   -2.8595    3.6424 H   0  0  0  0  0  0  0  0  0  0  0  0
    1.7638   -2.9979    6.2905 H   0  0  0  0  0  0  0  0  0  0  0  0
    1.6995   -1.5121    5.2935 H   0  0  0  0  0  0  0  0  0  0  0  0
    2.2780   -1.4446    6.9818 H   0  0  0  0  0  0  0  0  0  0  0  0
    7.6702    2.0684    5.0653 H   0  0  0  0  0  0  0  0  0  0  0  0
  1  2  1  0
  1 28  1  0
  1 29  1  0
  1 30  1  0
  2  3  1  0
  2  4  1  0
  2 31  1  6
  3 32  1  0
  3 33  1  0
  3 34  1  0
  4  5  1  0
  4 27  1  0
  5  6  2  0
  6  7  1  0
  6 35  1  0
  7  8  1  0
  7 27  2  0
  8  9  2  0
  8 36  1  0
  9 10  1  0
  9 25  1  0
 10 11  2  0
 10 12  1  0
 12 13  1  0
 12 16  1  0
 13 14  1  0
 13 37  1  0
 13 38  1  0
 14 15  1  0
 14 39  1  0
 14 40  1  0
 15 16  1  0
 15 41  1  0
 15 42  1  0
 16 17  1  1
 16 18  1  0
 18 19  1  6
 18 20  1  0
 18 23  1  0
 20 21  1  0
 20 43  1  0
 20 44  1  0
 21 22  1  0
 21 45  1  0
 21 46  1  0
 22 23  1  0
 22 47  1  0
 22 48  1  0
 23 24  1  0
 24 49  1  0
 24 50  1  0
 24 51  1  0
 25 26  2  0
 25 52  1  0
 26 27  1  0
M  END

