
     RDKit          3D

 36 37  0  0  0  0  0  0  0  0999 V2000
    1.5652   -1.1754   -3.1635 O   0  0  0  0  0  0  0  0  0  0  0  0
    1.8357   -0.3080   -2.3788 C   0  0  0  0  0  0  0  0  0  0  0  0
    1.1306    0.8388   -2.3545 O   0  0  0  0  0  0  0  0  0  0  0  0
    2.9726   -0.4046   -1.3491 C   0  0  2  0  0  0  0  0  0  0  0  0
    2.5240   -0.3107   -0.3465 H   0  0  0  0  0  0  0  0  0  0  0  0
    4.0639    0.6618   -1.5790 C   0  0  0  0  0  0  0  0  0  0  0  0
    4.9576    0.0136   -2.5310 N   0  0  0  0  0  0  0  0  0  0  0  0
    5.8405    0.7838   -3.2558 C   0  0  0  0  0  0  0  0  0  0  0  0
    5.8997    1.9948   -3.1088 O   0  0  0  0  0  0  0  0  0  0  0  0
    6.6295    0.0661   -4.1463 N   0  0  0  0  0  0  0  0  0  0  0  0
    7.6204    0.5587   -5.0095 C   0  0  0  0  0  0  0  0  0  0  0  0
    7.9786    1.9196   -5.0985 C   0  0  0  0  0  0  0  0  0  0  0  0
    8.9806    2.3197   -5.9860 C   0  0  0  0  0  0  0  0  0  0  0  0
    9.6478    1.4030   -6.7999 C   0  0  0  0  0  0  0  0  0  0  0  0
    9.2769    0.0633   -6.6956 C   0  0  0  0  0  0  0  0  0  0  0  0
    9.9588   -0.9431   -7.5396 N   0  0  0  0  0  0  0  0  0  0  0  0
   10.8259   -0.5467   -8.2999 O   0  0  0  0  0  0  0  0  0  0  0  0
    9.6118   -2.1083   -7.4230 O   0  0  0  0  0  0  0  0  0  0  0  0
    8.2845   -0.3737   -5.8235 C   0  0  0  0  0  0  0  0  0  0  0  0
    4.7995   -1.4383   -2.5763 C   0  0  0  0  0  0  0  0  0  0  0  0
    3.7217   -1.7412   -1.5149 C   0  0  1  0  0  0  0  0  0  0  0  0
    3.0335   -2.5199   -1.8692 H   0  0  0  0  0  0  0  0  0  0  0  0
    4.3119   -2.2500   -0.2096 C   0  0  1  0  0  0  0  0  0  0  0  0
    5.2099   -1.3945    0.3196 F   0  0  0  0  0  0  0  0  0  0  0  0
    3.3525   -2.4411    0.7114 F   0  0  0  0  0  0  0  0  0  0  0  0
    4.9410   -3.4217   -0.3925 F   0  0  0  0  0  0  0  0  0  0  0  0
    1.4544    1.4407   -1.6688 H   0  0  0  0  0  0  0  0  0  0  0  0
    4.5815    0.9041   -0.6354 H   0  0  0  0  0  0  0  0  0  0  0  0
    3.6909    1.6078   -1.9989 H   0  0  0  0  0  0  0  0  0  0  0  0
    6.4771   -0.9323   -4.2091 H   0  0  0  0  0  0  0  0  0  0  0  0
    7.4633    2.6418   -4.4700 H   0  0  0  0  0  0  0  0  0  0  0  0
    9.2440    3.3786   -6.0407 H   0  0  0  0  0  0  0  0  0  0  0  0
   10.4305    1.6968   -7.4975 H   0  0  0  0  0  0  0  0  0  0  0  0
    8.0462   -1.4378   -5.7943 H   0  0  0  0  0  0  0  0  0  0  0  0
    5.7418   -1.9674   -2.3520 H   0  0  0  0  0  0  0  0  0  0  0  0
    4.4423   -1.7733   -3.5658 H   0  0  0  0  0  0  0  0  0  0  0  0
  1  2  2  0
  2  3  1  0
  2  4  1  0
  3 27  1  0
  4  5  1  1
  4  6  1  0
  4 21  1  0
  6  7  1  0
  6 28  1  0
  6 29  1  0
  7  8  1  0
  7 20  1  0
  8  9  2  0
  8 10  1  0
 10 11  1  0
 10 30  1  0
 11 12  2  0
 11 19  1  0
 12 13  1  0
 12 31  1  0
 13 14  2  0
 13 32  1  0
 14 15  1  0
 14 33  1  0
 15 16  1  0
 15 19  2  0
 16 17  2  0
 16 18  1  0
 19 34  1  0
 20 21  1  0
 20 35  1  0
 20 36  1  0
 21 22  1  6
 21 23  1  0
 23 24  1  1
 23 25  1  0
 23 26  1  0
M  CHG  2  16   1  18  -1
M  END

