
     RDKit          3D

 34 35  0  0  0  0  0  0  0  0999 V2000
    2.9734   -1.4704   -0.2252 C   0  0  0  0  0  0  0  0  0  0  0  0
    2.1892   -0.2861   -0.5525 N   0  0  0  0  0  0  0  0  0  0  0  0
    2.8123    0.6774   -1.3386 C   0  0  0  0  0  0  0  0  0  0  0  0
    4.0169    0.6534   -1.5394 O   0  0  0  0  0  0  0  0  0  0  0  0
    1.9933    1.6699   -1.9022 N   0  0  0  0  0  0  0  0  0  0  0  0
    0.7161    1.3129   -2.5181 C   0  0  0  0  0  0  0  0  0  0  0  0
    0.8571    0.5201   -3.8251 C   0  0  0  0  0  0  0  0  0  0  0  0
   -0.4919    0.1129   -4.4003 C   0  0  0  0  0  0  0  0  0  0  0  0
   -1.5420    0.2735   -3.8404 O   0  0  0  0  0  0  0  0  0  0  0  0
   -0.4505   -0.4780   -5.6176 O   0  0  0  0  0  0  0  0  0  0  0  0
    2.7119    2.7512   -2.5317 C   0  0  1  0  0  0  0  0  0  0  0  0
    2.1383    4.1429   -2.4284 C   0  0  0  0  0  0  0  0  0  0  0  0
    3.3872    3.7753   -1.6684 C   0  0  0  0  0  0  0  0  0  0  0  0
    0.9820   -0.1023    0.2099 C   0  0  1  0  0  0  0  0  0  0  0  0
    1.0693    0.0082    1.7194 C   0  0  0  0  0  0  0  0  0  0  0  0
    0.6718    1.2006    0.8956 C   0  0  0  0  0  0  0  0  0  0  0  0
    3.7125   -1.6506   -1.0147 H   0  0  0  0  0  0  0  0  0  0  0  0
    2.3027   -2.3404   -0.1409 H   0  0  0  0  0  0  0  0  0  0  0  0
    3.5213   -1.3640    0.7282 H   0  0  0  0  0  0  0  0  0  0  0  0
    0.1606    2.2408   -2.7152 H   0  0  0  0  0  0  0  0  0  0  0  0
    0.0960    0.7364   -1.8245 H   0  0  0  0  0  0  0  0  0  0  0  0
    1.4431   -0.4008   -3.6494 H   0  0  0  0  0  0  0  0  0  0  0  0
    1.4126    1.0995   -4.5837 H   0  0  0  0  0  0  0  0  0  0  0  0
    0.4615   -0.5346   -5.9372 H   0  0  0  0  0  0  0  0  0  0  0  0
    3.2368    2.4964   -3.4624 H   0  0  0  0  0  0  0  0  0  0  0  0
    1.2166    4.2676   -1.8530 H   0  0  0  0  0  0  0  0  0  0  0  0
    2.2206    4.7994   -3.2992 H   0  0  0  0  0  0  0  0  0  0  0  0
    3.3037    3.6471   -0.5863 H   0  0  0  0  0  0  0  0  0  0  0  0
    4.3513    4.1655   -2.0040 H   0  0  0  0  0  0  0  0  0  0  0  0
    0.1166   -0.6698   -0.1615 H   0  0  0  0  0  0  0  0  0  0  0  0
    2.0669    0.0171    2.1665 H   0  0  0  0  0  0  0  0  0  0  0  0
    0.3099   -0.5077    2.3136 H   0  0  0  0  0  0  0  0  0  0  0  0
    1.3956    2.0107    0.7893 H   0  0  0  0  0  0  0  0  0  0  0  0
   -0.3712    1.5292    0.9039 H   0  0  0  0  0  0  0  0  0  0  0  0
  1  2  1  0
  1 17  1  0
  1 18  1  0
  1 19  1  0
  2  3  1  0
  2 14  1  0
  3  4  2  0
  3  5  1  0
  5  6  1  0
  5 11  1  0
  6  7  1  0
  6 20  1  0
  6 21  1  0
  7  8  1  0
  7 22  1  0
  7 23  1  0
  8  9  2  0
  8 10  1  0
 10 24  1  0
 11 12  1  0
 11 13  1  0
 11 25  1  6
 12 13  1  0
 12 26  1  0
 12 27  1  0
 13 28  1  0
 13 29  1  0
 14 15  1  0
 14 16  1  0
 14 30  1  1
 15 16  1  0
 15 31  1  0
 15 32  1  0
 16 33  1  0
 16 34  1  0
M  END

