
     RDKit          3D

 58 61  0  0  0  0  0  0  0  0999 V2000
   -1.0564   -0.5879    6.7651 C   0  0  0  0  0  0  0  0  0  0  0  0
    0.4104   -0.8812    6.9700 C   0  0  0  0  0  0  0  0  0  0  0  0
    1.0990   -0.3245    8.0576 C   0  0  0  0  0  0  0  0  0  0  0  0
    2.4506   -0.5991    8.2886 C   0  0  0  0  0  0  0  0  0  0  0  0
    3.1432   -1.4496    7.4266 C   0  0  0  0  0  0  0  0  0  0  0  0
    2.4728   -2.0114    6.3364 C   0  0  0  0  0  0  0  0  0  0  0  0
    1.1202   -1.7364    6.0930 C   0  0  0  0  0  0  0  0  0  0  0  0
    0.4419   -2.3566    4.8902 C   0  0  0  0  0  0  0  0  0  0  0  0
    0.1993   -1.4017    3.8069 N   0  0  0  0  0  0  0  0  0  0  0  0
    1.0695   -0.5135    3.2666 C   0  0  0  0  0  0  0  0  0  0  0  0
    0.4220    0.1029    2.2071 C   0  0  0  0  0  0  0  0  0  0  0  0
   -0.8667   -0.4998    2.1981 C   0  0  0  0  0  0  0  0  0  0  0  0
   -1.9271   -0.3306    1.3059 N   0  0  0  0  0  0  0  0  0  0  0  0
   -2.2685    0.7427    0.5153 C   0  0  0  0  0  0  0  0  0  0  0  0
   -3.3418    0.5379   -0.7425 S   0  0  0  0  0  0  0  0  0  0  0  0
   -1.6757    1.9307    0.8759 N   0  0  0  0  0  0  0  0  0  0  0  0
   -1.8461    3.1621    0.2235 C   0  0  0  0  0  0  0  0  0  0  0  0
   -1.8244    3.4354   -1.1658 C   0  0  0  0  0  0  0  0  0  0  0  0
   -2.0492    4.7232   -1.3991 N   0  0  0  0  0  0  0  0  0  0  0  0
   -2.2291    5.2943   -0.2059 N   0  0  0  0  0  0  0  0  0  0  0  0
   -2.4838    6.7206   -0.1171 C   0  0  0  0  0  0  0  0  0  0  0  0
   -2.1006    4.4011    0.8249 C   0  0  0  0  0  0  0  0  0  0  0  0
   -2.4187    4.7755    2.2349 C   0  0  0  0  0  0  0  0  0  0  0  0
   -3.4667    5.3464    2.5013 O   0  0  0  0  0  0  0  0  0  0  0  0
   -1.5106    4.4058    3.2131 N   0  0  0  0  0  0  0  0  0  0  0  0
   -1.8938    4.7054    4.5981 C   0  0  0  0  0  0  0  0  0  0  0  0
   -1.1869    3.7726    5.5815 C   0  0  0  0  0  0  0  0  0  0  0  0
    0.3330    3.8108    5.3930 C   0  0  0  0  0  0  0  0  0  0  0  0
    0.6914    3.5085    3.9345 C   0  0  0  0  0  0  0  0  0  0  0  0
   -0.0612    4.4258    2.9683 C   0  0  0  0  0  0  0  0  0  0  0  0
   -0.9875   -1.4041    3.1702 N   0  0  0  0  0  0  0  0  0  0  0  0
   -1.4206    0.1425    7.5016 H   0  0  0  0  0  0  0  0  0  0  0  0
   -1.6663   -1.5012    6.8746 H   0  0  0  0  0  0  0  0  0  0  0  0
   -1.2670   -0.1962    5.7580 H   0  0  0  0  0  0  0  0  0  0  0  0
    0.5591    0.3343    8.7437 H   0  0  0  0  0  0  0  0  0  0  0  0
    2.9580   -0.1508    9.1466 H   0  0  0  0  0  0  0  0  0  0  0  0
    4.1977   -1.6777    7.5996 H   0  0  0  0  0  0  0  0  0  0  0  0
    3.0094   -2.6833    5.6598 H   0  0  0  0  0  0  0  0  0  0  0  0
   -0.5479   -2.7619    5.1388 H   0  0  0  0  0  0  0  0  0  0  0  0
    1.0509   -3.1907    4.5042 H   0  0  0  0  0  0  0  0  0  0  0  0
    2.0733   -0.3824    3.6644 H   0  0  0  0  0  0  0  0  0  0  0  0
    0.8267    0.8420    1.5226 H   0  0  0  0  0  0  0  0  0  0  0  0
   -2.5079   -1.1474    1.1457 H   0  0  0  0  0  0  0  0  0  0  0  0
   -1.3224    1.9815    1.8278 H   0  0  0  0  0  0  0  0  0  0  0  0
   -1.6850    2.7345   -1.9842 H   0  0  0  0  0  0  0  0  0  0  0  0
   -2.7565    7.0604   -1.1231 H   0  0  0  0  0  0  0  0  0  0  0  0
   -1.5867    7.2683    0.2170 H   0  0  0  0  0  0  0  0  0  0  0  0
   -3.3063    6.9075    0.5851 H   0  0  0  0  0  0  0  0  0  0  0  0
   -2.9854    4.6255    4.6689 H   0  0  0  0  0  0  0  0  0  0  0  0
   -1.6410    5.7601    4.8304 H   0  0  0  0  0  0  0  0  0  0  0  0
   -1.5540    2.7422    5.4290 H   0  0  0  0  0  0  0  0  0  0  0  0
   -1.4632    4.0617    6.6088 H   0  0  0  0  0  0  0  0  0  0  0  0
    0.8290    3.0937    6.0672 H   0  0  0  0  0  0  0  0  0  0  0  0
    0.7109    4.8136    5.6656 H   0  0  0  0  0  0  0  0  0  0  0  0
    0.4474    2.4572    3.7074 H   0  0  0  0  0  0  0  0  0  0  0  0
    1.7743    3.6266    3.7629 H   0  0  0  0  0  0  0  0  0  0  0  0
    0.1329    4.1447    1.9245 H   0  0  0  0  0  0  0  0  0  0  0  0
    0.3094    5.4645    3.0939 H   0  0  0  0  0  0  0  0  0  0  0  0
  1  2  1  0
  1 32  1  0
  1 33  1  0
  1 34  1  0
  2  3  2  0
  2  7  1  0
  3  4  1  0
  3 35  1  0
  4  5  2  0
  4 36  1  0
  5  6  1  0
  5 37  1  0
  6  7  2  0
  6 38  1  0
  7  8  1  0
  8  9  1  0
  8 39  1  0
  8 40  1  0
  9 10  1  0
  9 31  1  0
 10 11  2  0
 10 41  1  0
 11 12  1  0
 11 42  1  0
 12 13  1  0
 12 31  2  0
 13 14  1  0
 13 43  1  0
 14 15  2  0
 14 16  1  0
 16 17  1  0
 16 44  1  0
 17 18  1  0
 17 22  2  0
 18 19  2  0
 18 45  1  0
 19 20  1  0
 20 21  1  0
 20 22  1  0
 21 46  1  0
 21 47  1  0
 21 48  1  0
 22 23  1  0
 23 24  2  0
 23 25  1  0
 25 26  1  0
 25 30  1  0
 26 27  1  0
 26 49  1  0
 26 50  1  0
 27 28  1  0
 27 51  1  0
 27 52  1  0
 28 29  1  0
 28 53  1  0
 28 54  1  0
 29 30  1  0
 29 55  1  0
 29 56  1  0
 30 57  1  0
 30 58  1  0
M  END

