
     RDKit          3D

146155  0  0  0  0  0  0  0  0999 V2000
    0.8713    8.4281    0.4823 C   0  0  0  0  0  0  0  0  0  0  0  0
    1.7200    7.2656   -0.0834 C   0  0  2  0  0  0  0  0  0  0  0  0
    2.8958    6.9712    0.8772 C   0  0  0  0  0  0  0  0  0  0  0  0
    2.3033    7.7097   -1.4369 C   0  0  0  0  0  0  0  0  0  0  0  0
    0.8410    6.0065   -0.2126 C   0  0  0  0  0  0  0  0  0  0  0  0
    0.2232    5.4594    0.9292 C   0  0  0  0  0  0  0  0  0  0  0  0
   -0.5745    4.3183    0.8568 C   0  0  0  0  0  0  0  0  0  0  0  0
   -0.7816    3.6822   -0.3729 C   0  0  0  0  0  0  0  0  0  0  0  0
   -1.5969    2.4984   -0.4579 N   0  0  0  0  0  0  0  0  0  0  0  0
   -2.9827    2.6541   -0.6393 C   0  0  0  0  0  0  0  0  0  0  0  0
   -3.5365    3.9526   -0.6680 C   0  0  0  0  0  0  0  0  0  0  0  0
   -4.9094    4.1432   -0.7614 C   0  0  0  0  0  0  0  0  0  0  0  0
   -5.8066    3.0611   -0.8199 C   0  0  0  0  0  0  0  0  0  0  0  0
   -7.3372    3.2377   -0.8709 C   0  0  1  0  0  0  0  0  0  0  0  0
   -7.8874    2.6200   -2.1772 C   0  0  0  0  0  0  0  0  0  0  0  0
   -7.9807    2.5269    0.3420 C   0  0  0  0  0  0  0  0  0  0  0  0
   -7.7508    4.7204   -0.8322 C   0  0  0  0  0  0  0  0  0  0  0  0
   -5.2345    1.7856   -0.8307 C   0  0  0  0  0  0  0  0  0  0  0  0
   -3.8456    1.5272   -0.7770 C   0  0  0  0  0  0  0  0  0  0  0  0
   -3.2020    0.1136   -0.8258 B   0  0  0  0  0  0  0  0  0  0  0  0
   -3.8388   -1.2539   -1.1992 C   0  0  0  0  0  0  0  0  0  0  0  0
   -5.1004   -1.4165   -1.8164 C   0  0  0  0  0  0  0  0  0  0  0  0
   -5.6831   -2.6502   -2.1207 C   0  0  0  0  0  0  0  0  0  0  0  0
   -7.0618   -2.7219   -2.8067 C   0  0  1  0  0  0  0  0  0  0  0  0
   -8.1243   -2.0491   -1.9071 C   0  0  0  0  0  0  0  0  0  0  0  0
   -7.0024   -1.9869   -4.1657 C   0  0  0  0  0  0  0  0  0  0  0  0
   -7.5051   -4.1735   -3.0661 C   0  0  0  0  0  0  0  0  0  0  0  0
   -4.9412   -3.7915   -1.7651 C   0  0  0  0  0  0  0  0  0  0  0  0
   -3.6795   -3.6960   -1.1915 C   0  0  0  0  0  0  0  0  0  0  0  0
   -3.0923   -2.4387   -0.9306 C   0  0  0  0  0  0  0  0  0  0  0  0
   -1.7799   -2.3803   -0.4292 N   0  0  0  0  0  0  0  0  0  0  0  0
   -1.1060   -3.6177   -0.1321 C   0  0  0  0  0  0  0  0  0  0  0  0
   -0.3821   -4.2906   -1.1181 C   0  0  0  0  0  0  0  0  0  0  0  0
    0.2756   -5.4881   -0.8189 C   0  0  0  0  0  0  0  0  0  0  0  0
    0.2320   -6.0488    0.4680 C   0  0  0  0  0  0  0  0  0  0  0  0
    0.9501   -7.3621    0.8347 C   0  0  1  0  0  0  0  0  0  0  0  0
   -0.0890   -8.3935    1.3326 C   0  0  0  0  0  0  0  0  0  0  0  0
    1.6968   -7.9719   -0.3654 C   0  0  0  0  0  0  0  0  0  0  0  0
    1.9795   -7.0856    1.9553 C   0  0  0  0  0  0  0  0  0  0  0  0
   -0.5061   -5.3535    1.4454 C   0  0  0  0  0  0  0  0  0  0  0  0
   -1.1652   -4.1591    1.1566 C   0  0  0  0  0  0  0  0  0  0  0  0
   -1.0665   -1.1892   -0.2649 C   0  0  0  0  0  0  0  0  0  0  0  0
    0.2915   -1.2322    0.1043 C   0  0  0  0  0  0  0  0  0  0  0  0
    1.0033   -0.0379    0.2397 C   0  0  0  0  0  0  0  0  0  0  0  0
    2.3809   -0.0876    0.5890 N   0  0  0  0  0  0  0  0  0  0  0  0
    3.3755   -0.7947   -0.0943 C   0  0  0  0  0  0  0  0  0  0  0  0
    3.2990   -1.5676   -1.2558 C   0  0  0  0  0  0  0  0  0  0  0  0
    4.4728   -2.1475   -1.7439 C   0  0  0  0  0  0  0  0  0  0  0  0
    5.7283   -1.9826   -1.1162 C   0  0  0  0  0  0  0  0  0  0  0  0
    7.0206   -2.6292   -1.6592 C   0  0  2  0  0  0  0  0  0  0  0  0
    6.7712   -3.4535   -2.9355 C   0  0  0  0  0  0  0  0  0  0  0  0
    7.6158   -3.5731   -0.5886 C   0  0  0  0  0  0  0  0  0  0  0  0
    8.0499   -1.5255   -1.9964 C   0  0  0  0  0  0  0  0  0  0  0  0
    5.7794   -1.1920    0.0421 C   0  0  0  0  0  0  0  0  0  0  0  0
    4.6225   -0.5962    0.5558 C   0  0  0  0  0  0  0  0  0  0  0  0
    4.3659    0.2709    1.6915 C   0  0  0  0  0  0  0  0  0  0  0  0
    5.1771    0.7980    2.7022 C   0  0  0  0  0  0  0  0  0  0  0  0
    4.6352    1.6118    3.7088 C   0  0  0  0  0  0  0  0  0  0  0  0
    5.5550    2.1821    4.8097 C   0  0  1  0  0  0  0  0  0  0  0  0
    6.6531    3.0582    4.1633 C   0  0  0  0  0  0  0  0  0  0  0  0
    4.7868    3.0513    5.8222 C   0  0  0  0  0  0  0  0  0  0  0  0
    6.2183    1.0194    5.5840 C   0  0  0  0  0  0  0  0  0  0  0  0
    3.2465    1.8706    3.6677 C   0  0  0  0  0  0  0  0  0  0  0  0
    2.4093    1.3604    2.6721 C   0  0  0  0  0  0  0  0  0  0  0  0
    2.9762    0.5634    1.6743 C   0  0  0  0  0  0  0  0  0  0  0  0
    0.3955    1.2040    0.0402 C   0  0  0  0  0  0  0  0  0  0  0  0
   -0.9739    1.2592   -0.2825 C   0  0  0  0  0  0  0  0  0  0  0  0
   -1.7275    0.0605   -0.4527 C   0  0  0  0  0  0  0  0  0  0  0  0
   -0.1817    4.2078   -1.5178 C   0  0  0  0  0  0  0  0  0  0  0  0
    0.6171    5.3533   -1.4352 C   0  0  0  0  0  0  0  0  0  0  0  0
    1.4862    9.3371    0.5857 H   0  0  0  0  0  0  0  0  0  0  0  0
    0.4582    8.1920    1.4748 H   0  0  0  0  0  0  0  0  0  0  0  0
    0.0269    8.6629   -0.1853 H   0  0  0  0  0  0  0  0  0  0  0  0
    2.5462    6.6911    1.8825 H   0  0  0  0  0  0  0  0  0  0  0  0
    3.5367    7.8619    0.9832 H   0  0  0  0  0  0  0  0  0  0  0  0
    3.5191    6.1458    0.4984 H   0  0  0  0  0  0  0  0  0  0  0  0
    2.9220    8.6100   -1.2976 H   0  0  0  0  0  0  0  0  0  0  0  0
    2.9458    6.9343   -1.8825 H   0  0  0  0  0  0  0  0  0  0  0  0
    1.5144    7.9610   -2.1631 H   0  0  0  0  0  0  0  0  0  0  0  0
    0.3663    5.9305    1.9042 H   0  0  0  0  0  0  0  0  0  0  0  0
   -1.0438    3.9129    1.7560 H   0  0  0  0  0  0  0  0  0  0  0  0
   -2.8919    4.8271   -0.5990 H   0  0  0  0  0  0  0  0  0  0  0  0
   -5.2773    5.1698   -0.7697 H   0  0  0  0  0  0  0  0  0  0  0  0
   -7.4491    3.1099   -3.0612 H   0  0  0  0  0  0  0  0  0  0  0  0
   -7.6633    1.5446   -2.2463 H   0  0  0  0  0  0  0  0  0  0  0  0
   -8.9829    2.7356   -2.2307 H   0  0  0  0  0  0  0  0  0  0  0  0
   -7.6131    2.9525    1.2893 H   0  0  0  0  0  0  0  0  0  0  0  0
   -7.7570    1.4492    0.3520 H   0  0  0  0  0  0  0  0  0  0  0  0
   -9.0776    2.6397    0.3201 H   0  0  0  0  0  0  0  0  0  0  0  0
   -7.4098    5.2182    0.0892 H   0  0  0  0  0  0  0  0  0  0  0  0
   -7.3518    5.2817   -1.6918 H   0  0  0  0  0  0  0  0  0  0  0  0
   -8.8487    4.8033   -0.8658 H   0  0  0  0  0  0  0  0  0  0  0  0
   -5.9006    0.9243   -0.8586 H   0  0  0  0  0  0  0  0  0  0  0  0
   -5.6399   -0.5115   -2.0927 H   0  0  0  0  0  0  0  0  0  0  0  0
   -8.1923   -2.5543   -0.9305 H   0  0  0  0  0  0  0  0  0  0  0  0
   -9.1185   -2.0897   -2.3826 H   0  0  0  0  0  0  0  0  0  0  0  0
   -7.8891   -0.9904   -1.7193 H   0  0  0  0  0  0  0  0  0  0  0  0
   -6.7289   -0.9274   -4.0475 H   0  0  0  0  0  0  0  0  0  0  0  0
   -6.2583   -2.4508   -4.8328 H   0  0  0  0  0  0  0  0  0  0  0  0
   -7.9826   -2.0243   -4.6697 H   0  0  0  0  0  0  0  0  0  0  0  0
   -6.8009   -4.7068   -3.7239 H   0  0  0  0  0  0  0  0  0  0  0  0
   -8.4895   -4.1811   -3.5603 H   0  0  0  0  0  0  0  0  0  0  0  0
   -7.6017   -4.7480   -2.1313 H   0  0  0  0  0  0  0  0  0  0  0  0
   -5.3372   -4.7905   -1.9511 H   0  0  0  0  0  0  0  0  0  0  0  0
   -3.1401   -4.6132   -0.9620 H   0  0  0  0  0  0  0  0  0  0  0  0
   -0.3348   -3.8737   -2.1267 H   0  0  0  0  0  0  0  0  0  0  0  0
    0.8314   -5.9814   -1.6162 H   0  0  0  0  0  0  0  0  0  0  0  0
    0.4085   -9.3391    1.6036 H   0  0  0  0  0  0  0  0  0  0  0  0
   -0.8343   -8.6130    0.5515 H   0  0  0  0  0  0  0  0  0  0  0  0
   -0.6307   -8.0366    2.2217 H   0  0  0  0  0  0  0  0  0  0  0  0
    2.4762   -7.2966   -0.7516 H   0  0  0  0  0  0  0  0  0  0  0  0
    2.1929   -8.9061   -0.0587 H   0  0  0  0  0  0  0  0  0  0  0  0
    1.0141   -8.2180   -1.1938 H   0  0  0  0  0  0  0  0  0  0  0  0
    1.5021   -6.6888    2.8642 H   0  0  0  0  0  0  0  0  0  0  0  0
    2.7346   -6.3539    1.6271 H   0  0  0  0  0  0  0  0  0  0  0  0
    2.5033   -8.0151    2.2329 H   0  0  0  0  0  0  0  0  0  0  0  0
   -0.5707   -5.7478    2.4620 H   0  0  0  0  0  0  0  0  0  0  0  0
   -1.7300   -3.6359    1.9315 H   0  0  0  0  0  0  0  0  0  0  0  0
    0.8003   -2.1737    0.2911 H   0  0  0  0  0  0  0  0  0  0  0  0
    2.3517   -1.7168   -1.7754 H   0  0  0  0  0  0  0  0  0  0  0  0
    4.3963   -2.7475   -2.6508 H   0  0  0  0  0  0  0  0  0  0  0  0
    7.7179   -3.8950   -3.2853 H   0  0  0  0  0  0  0  0  0  0  0  0
    6.0663   -4.2812   -2.7596 H   0  0  0  0  0  0  0  0  0  0  0  0
    6.3736   -2.8338   -3.7545 H   0  0  0  0  0  0  0  0  0  0  0  0
    6.9061   -4.3761   -0.3330 H   0  0  0  0  0  0  0  0  0  0  0  0
    7.8599   -3.0366    0.3410 H   0  0  0  0  0  0  0  0  0  0  0  0
    8.5437   -4.0420   -0.9566 H   0  0  0  0  0  0  0  0  0  0  0  0
    7.6551   -0.8397   -2.7630 H   0  0  0  0  0  0  0  0  0  0  0  0
    8.3098   -0.9230   -1.1127 H   0  0  0  0  0  0  0  0  0  0  0  0
    8.9826   -1.9693   -2.3831 H   0  0  0  0  0  0  0  0  0  0  0  0
    6.7298   -1.0280    0.5560 H   0  0  0  0  0  0  0  0  0  0  0  0
    6.2441    0.5621    2.6989 H   0  0  0  0  0  0  0  0  0  0  0  0
    6.2094    3.9009    3.6095 H   0  0  0  0  0  0  0  0  0  0  0  0
    7.2724    2.4848    3.4568 H   0  0  0  0  0  0  0  0  0  0  0  0
    7.3240    3.4722    4.9347 H   0  0  0  0  0  0  0  0  0  0  0  0
    4.0055    2.4790    6.3465 H   0  0  0  0  0  0  0  0  0  0  0  0
    5.4815    3.4370    6.5852 H   0  0  0  0  0  0  0  0  0  0  0  0
    4.3100    3.9195    5.3407 H   0  0  0  0  0  0  0  0  0  0  0  0
    5.4586    0.3804    6.0618 H   0  0  0  0  0  0  0  0  0  0  0  0
    6.8832    1.4079    6.3735 H   0  0  0  0  0  0  0  0  0  0  0  0
    6.8240    0.3798    4.9239 H   0  0  0  0  0  0  0  0  0  0  0  0
    2.7890    2.4913    4.4383 H   0  0  0  0  0  0  0  0  0  0  0  0
    1.3413    1.5813    2.6816 H   0  0  0  0  0  0  0  0  0  0  0  0
    0.9943    2.1057    0.1334 H   0  0  0  0  0  0  0  0  0  0  0  0
   -0.3402    3.7143   -2.4793 H   0  0  0  0  0  0  0  0  0  0  0  0
    1.0691    5.7307   -2.3523 H   0  0  0  0  0  0  0  0  0  0  0  0
  2  1  1  1
  1 71  1  0
  1 72  1  0
  1 73  1  0
  2  3  1  0
  2  4  1  0
  2  5  1  0
  3 74  1  0
  3 75  1  0
  3 76  1  0
  4 77  1  0
  4 78  1  0
  4 79  1  0
  5  6  2  0
  5 70  1  0
  6  7  1  0
  6 80  1  0
  7  8  2  0
  7 81  1  0
  8  9  1  0
  8 69  1  0
  9 10  1  0
  9 67  1  0
 10 11  2  0
 10 19  1  0
 11 12  1  0
 11 82  1  0
 12 13  2  0
 12 83  1  0
 13 14  1  0
 13 18  1  0
 14 15  1  6
 14 16  1  0
 14 17  1  0
 15 84  1  0
 15 85  1  0
 15 86  1  0
 16 87  1  0
 16 88  1  0
 16 89  1  0
 17 90  1  0
 17 91  1  0
 17 92  1  0
 18 19  2  0
 18 93  1  0
 19 20  1  0
 20 21  1  0
 20 68  1  0
 21 22  2  0
 21 30  1  0
 22 23  1  0
 22 94  1  0
 23 24  1  0
 23 28  2  0
 24 25  1  1
 24 26  1  0
 24 27  1  0
 25 95  1  0
 25 96  1  0
 25 97  1  0
 26 98  1  0
 26 99  1  0
 26100  1  0
 27101  1  0
 27102  1  0
 27103  1  0
 28 29  1  0
 28104  1  0
 29 30  2  0
 29105  1  0
 30 31  1  0
 31 32  1  0
 31 42  1  0
 32 33  2  0
 32 41  1  0
 33 34  1  0
 33106  1  0
 34 35  2  0
 34107  1  0
 35 36  1  0
 35 40  1  0
 36 37  1  1
 36 38  1  0
 36 39  1  0
 37108  1  0
 37109  1  0
 37110  1  0
 38111  1  0
 38112  1  0
 38113  1  0
 39114  1  0
 39115  1  0
 39116  1  0
 40 41  2  0
 40117  1  0
 41118  1  0
 42 43  1  0
 42 68  2  0
 43 44  2  0
 43119  1  0
 44 45  1  0
 44 66  1  0
 45 46  1  0
 45 65  1  0
 46 47  2  0
 46 55  1  0
 47 48  1  0
 47120  1  0
 48 49  2  0
 48121  1  0
 49 50  1  0
 49 54  1  0
 50 51  1  6
 50 52  1  0
 50 53  1  0
 51122  1  0
 51123  1  0
 51124  1  0
 52125  1  0
 52126  1  0
 52127  1  0
 53128  1  0
 53129  1  0
 53130  1  0
 54 55  2  0
 54131  1  0
 55 56  1  0
 56 57  1  0
 56 65  2  0
 57 58  2  0
 57132  1  0
 58 59  1  0
 58 63  1  0
 59 60  1  6
 59 61  1  0
 59 62  1  0
 60133  1  0
 60134  1  0
 60135  1  0
 61136  1  0
 61137  1  0
 61138  1  0
 62139  1  0
 62140  1  0
 62141  1  0
 63 64  2  0
 63142  1  0
 64 65  1  0
 64143  1  0
 66 67  2  0
 66144  1  0
 67 68  1  0
 69 70  2  0
 69145  1  0
 70146  1  0
M  END

