
     RDKit          3D

 33 34  0  0  0  0  0  0  0  0999 V2000
    3.6848   -1.0090   -2.6004 C   0  0  0  0  0  0  0  0  0  0  0  0
    3.7975   -0.5909   -1.1688 C   0  0  0  0  0  0  0  0  0  0  0  0
    4.3185    0.5689   -0.8453 N   0  0  0  0  0  0  0  0  0  0  0  0
    4.2730    0.6357    0.5384 O   0  0  0  0  0  0  0  0  0  0  0  0
    3.7240   -0.4825    1.0356 C   0  0  0  0  0  0  0  0  0  0  0  0
    3.5939   -0.5827    2.5173 C   0  0  0  0  0  0  0  0  0  0  0  0
    3.3970   -1.3242    0.0010 C   0  0  0  0  0  0  0  0  0  0  0  0
    2.7685   -2.6730    0.0686 C   0  0  0  0  0  0  0  0  0  0  0  0
    0.9350   -2.5093   -0.1506 S   0  0  0  0  0  0  0  0  0  0  0  0
    0.4157   -4.2191   -0.1048 C   0  0  0  0  0  0  0  0  0  0  0  0
    1.3684   -5.1074   -0.1460 N   0  0  0  0  0  0  0  0  0  0  0  0
    1.0871   -6.4529   -0.1792 C   0  0  0  0  0  0  0  0  0  0  0  0
    1.9004   -7.3483   -0.1671 O   0  0  0  0  0  0  0  0  0  0  0  0
   -0.2974   -6.7662   -0.2520 N   0  0  0  0  0  0  0  0  0  0  0  0
   -0.5008   -7.7604   -0.3175 H   0  0  0  0  0  0  0  0  0  0  0  0
   -1.3152   -5.8797   -0.1925 C   0  0  0  0  0  0  0  0  0  0  0  0
   -2.6961   -6.4644   -0.2584 C   0  0  0  0  0  0  0  0  0  0  0  0
   -1.0032   -4.5236   -0.0749 C   0  0  0  0  0  0  0  0  0  0  0  0
   -2.1296   -3.5412    0.0594 C   0  0  0  0  0  0  0  0  0  0  0  0
   -3.2483   -3.7812   -0.3274 O   0  0  0  0  0  0  0  0  0  0  0  0
   -1.8833   -2.3748    0.6800 O   0  0  0  0  0  0  0  0  0  0  0  0
    4.0696   -0.2149   -3.2542 H   0  0  0  0  0  0  0  0  0  0  0  0
    2.6363   -1.2145   -2.8692 H   0  0  0  0  0  0  0  0  0  0  0  0
    4.2610   -1.9295   -2.7896 H   0  0  0  0  0  0  0  0  0  0  0  0
    3.9813    0.3306    2.9889 H   0  0  0  0  0  0  0  0  0  0  0  0
    4.1595   -1.4433    2.9096 H   0  0  0  0  0  0  0  0  0  0  0  0
    2.5414   -0.7109    2.8162 H   0  0  0  0  0  0  0  0  0  0  0  0
    2.9453   -3.1763    1.0284 H   0  0  0  0  0  0  0  0  0  0  0  0
    3.1175   -3.3468   -0.7237 H   0  0  0  0  0  0  0  0  0  0  0  0
   -2.6540   -7.5614   -0.1880 H   0  0  0  0  0  0  0  0  0  0  0  0
   -3.1851   -6.1728   -1.1987 H   0  0  0  0  0  0  0  0  0  0  0  0
   -3.3354   -6.0659    0.5400 H   0  0  0  0  0  0  0  0  0  0  0  0
   -0.9586   -2.2936    0.9764 H   0  0  0  0  0  0  0  0  0  0  0  0
  1  2  1  0
  1 22  1  0
  1 23  1  0
  1 24  1  0
  2  3  2  0
  2  7  1  0
  3  4  1  0
  4  5  1  0
  5  6  1  0
  5  7  2  0
  6 25  1  0
  6 26  1  0
  6 27  1  0
  7  8  1  0
  8  9  1  0
  8 28  1  0
  8 29  1  0
  9 10  2  0
 10 11  1  0
 10 18  1  0
 11 12  2  0
 12 13  1  0
 12 14  1  0
 14 15  1  0
 14 16  1  0
 16 17  1  0
 16 18  2  0
 17 30  1  0
 17 31  1  0
 17 32  1  0
 18 19  1  0
 19 20  2  0
 19 21  1  0
 21 33  1  0
M  CHG  2   9   1  13  -1
M  END

