
     RDKit          3D

 32 32  0  0  0  0  0  0  0  0999 V2000
    1.0455   -0.1617    0.1264 C   0  0  0  0  0  0  0  0  0  0  0  0
    2.5783   -0.0455   -0.0026 C   0  0  1  0  0  0  0  0  0  0  0  0
    3.0498   -0.9558   -1.1549 C   0  0  0  0  0  0  0  0  0  0  0  0
    2.9661    1.4117   -0.3555 C   0  0  0  0  0  0  0  0  0  0  0  0
    2.6387    2.4935    0.6647 C   0  0  0  0  0  0  0  0  0  0  0  0
    2.1667    2.3215    1.7583 O   0  0  0  0  0  0  0  0  0  0  0  0
    2.9387    3.7497    0.2592 O   0  0  0  0  0  0  0  0  0  0  0  0
    3.2019   -0.5069    1.3388 C   0  0  0  0  0  0  0  0  0  0  0  0
    4.7125   -0.4516    1.4844 C   0  0  0  0  0  0  0  0  0  0  0  0
    5.4452    0.0117    0.6285 O   0  0  0  0  0  0  0  0  0  0  0  0
    5.3188   -0.9898    2.7608 C   0  0  0  0  0  0  0  0  0  0  0  0
    6.7194   -0.9937    2.8551 C   0  0  0  0  0  0  0  0  0  0  0  0
    7.3169   -1.4782    4.0110 C   0  0  0  0  0  0  0  0  0  0  0  0
    8.6514   -1.4880    4.1056 F   0  0  0  0  0  0  0  0  0  0  0  0
    6.5712   -1.9594    5.0874 C   0  0  0  0  0  0  0  0  0  0  0  0
    5.1787   -1.9450    4.9801 C   0  0  0  0  0  0  0  0  0  0  0  0
    4.2152   -2.5360    6.3106 Cl  0  0  0  0  0  0  0  0  0  0  0  0
    4.5439   -1.4670    3.8303 C   0  0  0  0  0  0  0  0  0  0  0  0
    0.5533    0.1325   -0.8154 H   0  0  0  0  0  0  0  0  0  0  0  0
    0.6600    0.4784    0.9324 H   0  0  0  0  0  0  0  0  0  0  0  0
    0.7505   -1.2017    0.3415 H   0  0  0  0  0  0  0  0  0  0  0  0
    2.5688   -0.6643   -2.1032 H   0  0  0  0  0  0  0  0  0  0  0  0
    2.7756   -2.0048   -0.9561 H   0  0  0  0  0  0  0  0  0  0  0  0
    4.1389   -0.9042   -1.2930 H   0  0  0  0  0  0  0  0  0  0  0  0
    2.4706    1.6907   -1.3039 H   0  0  0  0  0  0  0  0  0  0  0  0
    4.0515    1.4611   -0.5427 H   0  0  0  0  0  0  0  0  0  0  0  0
    3.3293    3.7356   -0.6264 H   0  0  0  0  0  0  0  0  0  0  0  0
    2.8839   -1.5458    1.5365 H   0  0  0  0  0  0  0  0  0  0  0  0
    2.7757    0.0967    2.1574 H   0  0  0  0  0  0  0  0  0  0  0  0
    7.3209   -0.6182    2.0268 H   0  0  0  0  0  0  0  0  0  0  0  0
    7.0719   -2.3320    5.9814 H   0  0  0  0  0  0  0  0  0  0  0  0
    3.4557   -1.4672    3.7924 H   0  0  0  0  0  0  0  0  0  0  0  0
  2  1  1  1
  1 19  1  0
  1 20  1  0
  1 21  1  0
  2  3  1  0
  2  4  1  0
  2  8  1  0
  3 22  1  0
  3 23  1  0
  3 24  1  0
  4  5  1  0
  4 25  1  0
  4 26  1  0
  5  6  2  0
  5  7  1  0
  7 27  1  0
  8  9  1  0
  8 28  1  0
  8 29  1  0
  9 10  2  0
  9 11  1  0
 11 12  2  0
 11 18  1  0
 12 13  1  0
 12 30  1  0
 13 14  1  0
 13 15  2  0
 15 16  1  0
 15 31  1  0
 16 17  1  0
 16 18  2  0
 18 32  1  0
M  END

