
     RDKit          3D

 65 71  0  0  0  0  0  0  0  0999 V2000
   -6.4323    3.5148    2.7134 C   0  0  0  0  0  0  0  0  0  0  0  0
   -5.3760    2.7318    1.9696 C   0  0  0  0  0  0  0  0  0  0  0  0
   -4.3354    3.4123    1.2954 C   0  0  0  0  0  0  0  0  0  0  0  0
   -3.3355    2.7408    0.5937 C   0  0  0  0  0  0  0  0  0  0  0  0
   -3.3840    1.3426    0.5618 C   0  0  0  0  0  0  0  0  0  0  0  0
   -4.4083    0.6295    1.2331 C   0  0  0  0  0  0  0  0  0  0  0  0
   -5.3986    1.3345    1.9333 C   0  0  0  0  0  0  0  0  0  0  0  0
   -4.1493   -0.7817    1.0169 C   0  0  0  0  0  0  0  0  0  0  0  0
   -4.8146   -1.9548    1.4037 C   0  0  0  0  0  0  0  0  0  0  0  0
   -4.3275   -3.2030    1.0066 C   0  0  0  0  0  0  0  0  0  0  0  0
   -5.0193   -4.4822    1.4152 C   0  0  0  0  0  0  0  0  0  0  0  0
   -3.1630   -3.2540    0.2057 C   0  0  0  0  0  0  0  0  0  0  0  0
   -2.4790   -2.1071   -0.1923 C   0  0  0  0  0  0  0  0  0  0  0  0
   -2.9752   -0.8692    0.2287 C   0  0  0  0  0  0  0  0  0  0  0  0
   -2.5065    0.4272   -0.0377 N   0  0  0  0  0  0  0  0  0  0  0  0
   -1.4206    0.7679   -0.8745 C   0  0  0  0  0  0  0  0  0  0  0  0
   -1.6471    1.5041   -2.0440 C   0  0  0  0  0  0  0  0  0  0  0  0
   -0.5809    1.8603   -2.8707 C   0  0  0  0  0  0  0  0  0  0  0  0
    0.7195    1.4598   -2.5618 C   0  0  0  0  0  0  0  0  0  0  0  0
    0.9756    0.7230   -1.3989 C   0  0  0  0  0  0  0  0  0  0  0  0
    2.2987    0.3367   -1.0892 N   0  0  0  0  0  0  0  0  0  0  0  0
    3.3784    1.2151   -0.9160 C   0  0  0  0  0  0  0  0  0  0  0  0
    3.3977    2.6138   -0.8768 C   0  0  0  0  0  0  0  0  0  0  0  0
    4.6226    3.2433   -0.6605 C   0  0  0  0  0  0  0  0  0  0  0  0
    5.8242    2.5205   -0.4762 C   0  0  0  0  0  0  0  0  0  0  0  0
    7.1210    3.2589   -0.2411 C   0  0  0  0  0  0  0  0  0  0  0  0
    5.7796    1.1236   -0.5091 C   0  0  0  0  0  0  0  0  0  0  0  0
    4.5630    0.4603   -0.7277 C   0  0  0  0  0  0  0  0  0  0  0  0
    4.1869   -0.9389   -0.8066 C   0  0  0  0  0  0  0  0  0  0  0  0
    4.9101   -2.1383   -0.7244 C   0  0  0  0  0  0  0  0  0  0  0  0
    4.2573   -3.3649   -0.8738 C   0  0  0  0  0  0  0  0  0  0  0  0
    5.0093   -4.6715   -0.7772 C   0  0  0  0  0  0  0  0  0  0  0  0
    2.8640   -3.3674   -1.1165 C   0  0  0  0  0  0  0  0  0  0  0  0
    2.1182   -2.1935   -1.2010 C   0  0  0  0  0  0  0  0  0  0  0  0
    2.7888   -0.9777   -1.0332 C   0  0  0  0  0  0  0  0  0  0  0  0
   -0.0960    0.3965   -0.5288 C   0  0  0  0  0  0  0  0  0  0  0  0
    0.1686   -0.2298    0.7340 C   0  0  0  0  0  0  0  0  0  0  0  0
    0.3855   -0.7140    1.7662 N   0  0  0  0  0  0  0  0  0  0  0  0
   -5.9853    4.1600    3.4885 H   0  0  0  0  0  0  0  0  0  0  0  0
   -7.1541    2.8489    3.2091 H   0  0  0  0  0  0  0  0  0  0  0  0
   -6.9986    4.1751    2.0346 H   0  0  0  0  0  0  0  0  0  0  0  0
   -4.3101    4.5055    1.3294 H   0  0  0  0  0  0  0  0  0  0  0  0
   -2.5396    3.2953    0.0932 H   0  0  0  0  0  0  0  0  0  0  0  0
   -6.1894    0.7893    2.4560 H   0  0  0  0  0  0  0  0  0  0  0  0
   -5.7194   -1.8923    2.0145 H   0  0  0  0  0  0  0  0  0  0  0  0
   -4.3545   -5.1246    2.0173 H   0  0  0  0  0  0  0  0  0  0  0  0
   -5.3270   -5.0740    0.5364 H   0  0  0  0  0  0  0  0  0  0  0  0
   -5.9197   -4.2807    2.0143 H   0  0  0  0  0  0  0  0  0  0  0  0
   -2.7822   -4.2291   -0.1115 H   0  0  0  0  0  0  0  0  0  0  0  0
   -1.5842   -2.1834   -0.8118 H   0  0  0  0  0  0  0  0  0  0  0  0
   -2.6703    1.7832   -2.2999 H   0  0  0  0  0  0  0  0  0  0  0  0
   -0.7702    2.4285   -3.7844 H   0  0  0  0  0  0  0  0  0  0  0  0
    1.5518    1.7043   -3.2235 H   0  0  0  0  0  0  0  0  0  0  0  0
    2.4862    3.2005   -1.0044 H   0  0  0  0  0  0  0  0  0  0  0  0
    4.6531    4.3363   -0.6273 H   0  0  0  0  0  0  0  0  0  0  0  0
    7.0739    3.8756    0.6725 H   0  0  0  0  0  0  0  0  0  0  0  0
    7.3548    3.9410   -1.0761 H   0  0  0  0  0  0  0  0  0  0  0  0
    7.9668    2.5642   -0.1308 H   0  0  0  0  0  0  0  0  0  0  0  0
    6.6962    0.5462   -0.3603 H   0  0  0  0  0  0  0  0  0  0  0  0
    5.9889   -2.1134   -0.5472 H   0  0  0  0  0  0  0  0  0  0  0  0
    4.8644   -5.2893   -1.6794 H   0  0  0  0  0  0  0  0  0  0  0  0
    6.0900   -4.5072   -0.6537 H   0  0  0  0  0  0  0  0  0  0  0  0
    4.6633   -5.2719    0.0815 H   0  0  0  0  0  0  0  0  0  0  0  0
    2.3510   -4.3255   -1.2402 H   0  0  0  0  0  0  0  0  0  0  0  0
    1.0446   -2.2324   -1.3914 H   0  0  0  0  0  0  0  0  0  0  0  0
  1  2  1  0
  1 39  1  0
  1 40  1  0
  1 41  1  0
  2  3  2  0
  2  7  1  0
  3  4  1  0
  3 42  1  0
  4  5  2  0
  4 43  1  0
  5  6  1  0
  5 15  1  0
  6  7  2  0
  6  8  1  0
  7 44  1  0
  8  9  2  0
  8 14  1  0
  9 10  1  0
  9 45  1  0
 10 11  1  0
 10 12  2  0
 11 46  1  0
 11 47  1  0
 11 48  1  0
 12 13  1  0
 12 49  1  0
 13 14  2  0
 13 50  1  0
 14 15  1  0
 15 16  1  0
 16 17  2  0
 16 36  1  0
 17 18  1  0
 17 51  1  0
 18 19  2  0
 18 52  1  0
 19 20  1  0
 19 53  1  0
 20 21  1  0
 20 36  2  0
 21 22  1  0
 21 35  1  0
 22 23  2  0
 22 28  1  0
 23 24  1  0
 23 54  1  0
 24 25  2  0
 24 55  1  0
 25 26  1  0
 25 27  1  0
 26 56  1  0
 26 57  1  0
 26 58  1  0
 27 28  2  0
 27 59  1  0
 28 29  1  0
 29 30  1  0
 29 35  2  0
 30 31  2  0
 30 60  1  0
 31 32  1  0
 31 33  1  0
 32 61  1  0
 32 62  1  0
 32 63  1  0
 33 34  2  0
 33 64  1  0
 34 35  1  0
 34 65  1  0
 36 37  1  0
 37 38  3  0
M  END

