
     RDKit          3D

 38 40  0  0  0  0  0  0  0  0999 V2000
    3.3098    3.3283   -0.7295 C   0  0  0  0  0  0  0  0  0  0  0  0
    4.2762    2.4885   -0.1097 O   0  0  0  0  0  0  0  0  0  0  0  0
    3.9189    1.8271    1.0057 C   0  0  0  0  0  0  0  0  0  0  0  0
    2.6937    2.0076    1.4936 N   0  0  0  0  0  0  0  0  0  0  0  0
    2.3912    1.2855    2.5724 C   0  0  0  0  0  0  0  0  0  0  0  0
    3.1995    0.4745    3.2327 N   0  0  0  0  0  0  0  0  0  0  0  0
    4.4577    0.3214    2.7645 C   0  0  0  0  0  0  0  0  0  0  0  0
    5.2967   -0.5190    3.4886 N   0  0  0  0  0  0  0  0  0  0  0  0
    4.7146   -1.4243    4.4782 C   0  0  0  0  0  0  0  0  0  0  0  0
    5.5280   -2.7179    4.5150 C   0  0  0  0  0  0  0  0  0  0  0  0
    7.0155   -2.4564    4.6224 C   0  0  0  0  0  0  0  0  0  0  0  0
    7.9126   -3.4571    5.0265 C   0  0  0  0  0  0  0  0  0  0  0  0
    9.2828   -3.2291    5.1066 C   0  0  0  0  0  0  0  0  0  0  0  0
    9.8152   -1.9660    4.7758 C   0  0  0  0  0  0  0  0  0  0  0  0
   11.1757   -1.7098    4.8975 N   0  0  0  0  0  0  0  0  0  0  0  0
    8.9201   -0.9626    4.3672 C   0  0  0  0  0  0  0  0  0  0  0  0
    7.5418   -1.1971    4.2883 C   0  0  0  0  0  0  0  0  0  0  0  0
    6.6249   -0.0583    3.8842 C   0  0  0  0  0  0  0  0  0  0  0  0
    4.8719    0.9520    1.5657 C   0  0  0  0  0  0  0  0  0  0  0  0
    6.1601    0.6694    0.8409 C   0  0  0  0  0  0  0  0  0  0  0  0
    3.8024    3.7477   -1.6167 H   0  0  0  0  0  0  0  0  0  0  0  0
    2.9915    4.1370   -0.0540 H   0  0  0  0  0  0  0  0  0  0  0  0
    2.4151    2.7587   -1.0248 H   0  0  0  0  0  0  0  0  0  0  0  0
    1.3687    1.3871    2.9588 H   0  0  0  0  0  0  0  0  0  0  0  0
    3.6694   -1.6138    4.2115 H   0  0  0  0  0  0  0  0  0  0  0  0
    4.7043   -0.9473    5.4797 H   0  0  0  0  0  0  0  0  0  0  0  0
    5.3168   -3.2951    3.5959 H   0  0  0  0  0  0  0  0  0  0  0  0
    5.1884   -3.3417    5.3593 H   0  0  0  0  0  0  0  0  0  0  0  0
    7.5236   -4.4462    5.2880 H   0  0  0  0  0  0  0  0  0  0  0  0
    9.9533   -4.0296    5.4324 H   0  0  0  0  0  0  0  0  0  0  0  0
   11.7880   -2.5168    4.8674 H   0  0  0  0  0  0  0  0  0  0  0  0
   11.5348   -0.9250    4.3662 H   0  0  0  0  0  0  0  0  0  0  0  0
    9.3119    0.0267    4.1071 H   0  0  0  0  0  0  0  0  0  0  0  0
    7.0888    0.5145    3.0740 H   0  0  0  0  0  0  0  0  0  0  0  0
    6.5316    0.6433    4.7433 H   0  0  0  0  0  0  0  0  0  0  0  0
    6.5217   -0.3436    1.0704 H   0  0  0  0  0  0  0  0  0  0  0  0
    6.9641    1.3831    1.0942 H   0  0  0  0  0  0  0  0  0  0  0  0
    6.0035    0.7513   -0.2440 H   0  0  0  0  0  0  0  0  0  0  0  0
  1  2  1  0
  1 21  1  0
  1 22  1  0
  1 23  1  0
  2  3  1  0
  3  4  2  0
  3 19  1  0
  4  5  1  0
  5  6  2  0
  5 24  1  0
  6  7  1  0
  7  8  1  0
  7 19  2  0
  8  9  1  0
  8 18  1  0
  9 10  1  0
  9 25  1  0
  9 26  1  0
 10 11  1  0
 10 27  1  0
 10 28  1  0
 11 12  2  0
 11 17  1  0
 12 13  1  0
 12 29  1  0
 13 14  2  0
 13 30  1  0
 14 15  1  0
 14 16  1  0
 15 31  1  0
 15 32  1  0
 16 17  2  0
 16 33  1  0
 17 18  1  0
 18 34  1  0
 18 35  1  0
 19 20  1  0
 20 36  1  0
 20 37  1  0
 20 38  1  0
M  END

