
     RDKit          3D

 22 23  0  0  0  0  0  0  0  0999 V2000
    1.2863   -0.1151   -0.4092 C   0  0  0  0  0  0  0  0  0  0  0  0
    2.7218    0.1438   -0.1169 C   0  0  0  0  0  0  0  0  0  0  0  0
    3.4323    1.2665    0.2073 C   0  0  0  0  0  0  0  0  0  0  0  0
    4.8013    0.8593    0.3586 C   0  0  0  0  0  0  0  0  0  0  0  0
    4.8307   -0.4854    0.1254 C   0  0  0  0  0  0  0  0  0  0  0  0
    5.9060   -1.5150    0.1355 C   0  0  0  0  0  0  0  0  0  0  0  0
    5.9859   -2.1990   -1.1540 N   0  0  0  0  0  0  0  0  0  0  0  0
    7.0243   -3.0346   -1.4202 C   0  0  0  0  0  0  0  0  0  0  0  0
    8.0854   -3.1426   -0.6593 N   0  0  0  0  0  0  0  0  0  0  0  0
    9.0110   -4.0016   -1.1602 N   0  0  0  0  0  0  0  0  0  0  0  0
    8.6645   -4.5522   -2.2755 C   0  0  0  0  0  0  0  0  0  0  0  0
    7.0875   -4.0411   -2.8708 S   0  0  0  0  0  0  0  0  0  0  0  0
    3.5689   -0.9275   -0.1648 O   0  0  0  0  0  0  0  0  0  0  0  0
    0.7130    0.8190   -0.3333 H   0  0  0  0  0  0  0  0  0  0  0  0
    0.8557   -0.8436    0.2983 H   0  0  0  0  0  0  0  0  0  0  0  0
    1.1476   -0.5229   -1.4250 H   0  0  0  0  0  0  0  0  0  0  0  0
    3.0271    2.2699    0.3212 H   0  0  0  0  0  0  0  0  0  0  0  0
    5.6547    1.4862    0.6084 H   0  0  0  0  0  0  0  0  0  0  0  0
    5.7413   -2.2458    0.9526 H   0  0  0  0  0  0  0  0  0  0  0  0
    6.8725   -1.0349    0.3404 H   0  0  0  0  0  0  0  0  0  0  0  0
    5.1057   -2.3674   -1.6259 H   0  0  0  0  0  0  0  0  0  0  0  0
    9.2748   -5.2742   -2.8200 H   0  0  0  0  0  0  0  0  0  0  0  0
  1  2  1  0
  1 14  1  0
  1 15  1  0
  1 16  1  0
  2  3  2  0
  2 13  1  0
  3  4  1  0
  3 17  1  0
  4  5  2  0
  4 18  1  0
  5  6  1  0
  5 13  1  0
  6  7  1  0
  6 19  1  0
  6 20  1  0
  7  8  1  0
  7 21  1  0
  8  9  2  0
  8 12  1  0
  9 10  1  0
 10 11  2  0
 11 12  1  0
 11 22  1  0
M  END

