
     RDKit          3D

 82 84  0  0  0  0  0  0  0  0999 V2000
    4.6240    0.3272    3.4782 C   0  0  0  0  0  0  0  0  0  0  0  0
    3.6969    1.1084    2.5465 C   0  0  0  0  0  0  0  0  0  0  0  0
    4.1940    2.5179    2.1983 C   0  0  0  0  0  0  0  0  0  0  0  0
    5.4643    2.5409    1.4854 N   0  0  0  0  0  0  0  0  0  0  0  0
    5.5462    2.5974    0.1296 C   0  0  0  0  0  0  0  0  0  0  0  0
    4.5647    2.6481   -0.6004 O   0  0  0  0  0  0  0  0  0  0  0  0
    6.9779    2.6127   -0.4359 C   0  0  1  0  0  0  0  0  0  0  0  0
    7.1084    1.6420   -1.6316 C   0  0  0  0  0  0  0  0  0  0  0  0
    6.9327    0.1915   -1.2366 C   0  0  0  0  0  0  0  0  0  0  0  0
    5.6950   -0.4575   -1.3743 C   0  0  0  0  0  0  0  0  0  0  0  0
    5.5402   -1.7916   -0.9847 C   0  0  0  0  0  0  0  0  0  0  0  0
    6.6199   -2.4976   -0.4460 C   0  0  0  0  0  0  0  0  0  0  0  0
    7.8565   -1.8608   -0.2992 C   0  0  0  0  0  0  0  0  0  0  0  0
    8.0096   -0.5282   -0.6912 C   0  0  0  0  0  0  0  0  0  0  0  0
    7.3924    3.9821   -0.7856 N   0  0  0  0  0  0  0  0  0  0  0  0
    6.4866    4.8316   -1.5529 C   0  0  0  0  0  0  0  0  0  0  0  0
    5.7485    5.9133   -0.7724 C   0  0  0  0  0  0  0  0  0  0  0  0
    5.9282    6.1270    0.5985 C   0  0  0  0  0  0  0  0  0  0  0  0
    5.2312    7.1369    1.2723 C   0  0  0  0  0  0  0  0  0  0  0  0
    4.3371    7.9409    0.5649 C   0  0  0  0  0  0  0  0  0  0  0  0
    3.3785    9.3204    1.4703 Br  0  0  0  0  0  0  0  0  0  0  0  0
    4.1362    7.7450   -0.8057 C   0  0  0  0  0  0  0  0  0  0  0  0
    4.8434    6.7371   -1.4606 C   0  0  0  0  0  0  0  0  0  0  0  0
    8.7142    4.3091   -0.5340 C   0  0  0  0  0  0  0  0  0  0  0  0
    9.4693    3.5245    0.0224 O   0  0  0  0  0  0  0  0  0  0  0  0
    9.1974    5.6843   -0.9891 C   0  0  0  0  0  0  0  0  0  0  0  0
   10.5674    6.0303   -0.4086 C   0  0  0  0  0  0  0  0  0  0  0  0
   11.1128    7.3852   -0.8648 C   0  0  0  0  0  0  0  0  0  0  0  0
   10.2853    8.5396   -0.4571 N   0  0  0  0  0  0  0  0  0  0  0  0
    9.4816    9.2585   -1.3999 C   0  0  0  0  0  0  0  0  0  0  0  0
   10.0477    9.7968   -2.5631 C   0  0  0  0  0  0  0  0  0  0  0  0
    9.2677   10.4781   -3.5040 C   0  0  0  0  0  0  0  0  0  0  0  0
    7.8943   10.6547   -3.2723 C   0  0  0  0  0  0  0  0  0  0  0  0
    7.0495   11.3015   -4.1110 O   0  0  0  0  0  0  0  0  0  0  0  0
    7.5430   11.8726   -5.3130 C   0  0  0  0  0  0  0  0  0  0  0  0
    6.3815   12.5291   -6.0340 C   0  0  0  0  0  0  0  0  0  0  0  0
    7.3253   10.1334   -2.0958 C   0  0  0  0  0  0  0  0  0  0  0  0
    8.1032    9.4383   -1.1785 C   0  0  0  0  0  0  0  0  0  0  0  0
   10.5746    9.2306    1.0570 S   0  0  1  0  0  0  0  0  0  0  0  0
   11.7101   10.5989    0.7481 C   0  0  0  0  0  0  0  0  0  0  0  0
    9.3298    9.8230    1.5437 O   0  0  0  0  0  0  0  0  0  0  0  0
   11.3001    8.2280    1.8406 O   0  0  0  0  0  0  0  0  0  0  0  0
    4.2104   -0.6664    3.7114 H   0  0  0  0  0  0  0  0  0  0  0  0
    4.7755    0.8560    4.4351 H   0  0  0  0  0  0  0  0  0  0  0  0
    5.6136    0.1655    3.0203 H   0  0  0  0  0  0  0  0  0  0  0  0
    2.7005    1.2117    3.0111 H   0  0  0  0  0  0  0  0  0  0  0  0
    3.5458    0.5493    1.6078 H   0  0  0  0  0  0  0  0  0  0  0  0
    4.3048    3.1198    3.1167 H   0  0  0  0  0  0  0  0  0  0  0  0
    3.4608    3.0224    1.5534 H   0  0  0  0  0  0  0  0  0  0  0  0
    6.3248    2.4498    2.0116 H   0  0  0  0  0  0  0  0  0  0  0  0
    7.6872    2.2895    0.3364 H   0  0  0  0  0  0  0  0  0  0  0  0
    8.1119    1.7901   -2.0593 H   0  0  0  0  0  0  0  0  0  0  0  0
    6.3670    1.9165   -2.3970 H   0  0  0  0  0  0  0  0  0  0  0  0
    4.8460    0.0960   -1.7831 H   0  0  0  0  0  0  0  0  0  0  0  0
    4.5704   -2.2820   -1.1046 H   0  0  0  0  0  0  0  0  0  0  0  0
    6.4996   -3.5413   -0.1439 H   0  0  0  0  0  0  0  0  0  0  0  0
    8.7077   -2.4057    0.1178 H   0  0  0  0  0  0  0  0  0  0  0  0
    8.9807   -0.0361   -0.5785 H   0  0  0  0  0  0  0  0  0  0  0  0
    5.7295    4.1771   -2.0086 H   0  0  0  0  0  0  0  0  0  0  0  0
    7.0312    5.3039   -2.3862 H   0  0  0  0  0  0  0  0  0  0  0  0
    6.6189    5.4942    1.1587 H   0  0  0  0  0  0  0  0  0  0  0  0
    5.3878    7.2962    2.3404 H   0  0  0  0  0  0  0  0  0  0  0  0
    3.4319    8.3738   -1.3531 H   0  0  0  0  0  0  0  0  0  0  0  0
    4.6822    6.5879   -2.5325 H   0  0  0  0  0  0  0  0  0  0  0  0
    8.4587    6.4538   -0.7204 H   0  0  0  0  0  0  0  0  0  0  0  0
    9.2376    5.6828   -2.0950 H   0  0  0  0  0  0  0  0  0  0  0  0
   11.2912    5.2486   -0.6902 H   0  0  0  0  0  0  0  0  0  0  0  0
   10.5241    6.0211    0.6903 H   0  0  0  0  0  0  0  0  0  0  0  0
   11.1886    7.4191   -1.9629 H   0  0  0  0  0  0  0  0  0  0  0  0
   12.1321    7.5058   -0.4673 H   0  0  0  0  0  0  0  0  0  0  0  0
   11.1187    9.6804   -2.7478 H   0  0  0  0  0  0  0  0  0  0  0  0
    9.7437   10.8721   -4.4018 H   0  0  0  0  0  0  0  0  0  0  0  0
    8.0027   11.0876   -5.9435 H   0  0  0  0  0  0  0  0  0  0  0  0
    8.3313   12.6144   -5.0828 H   0  0  0  0  0  0  0  0  0  0  0  0
    5.6020   11.7888   -6.2701 H   0  0  0  0  0  0  0  0  0  0  0  0
    6.7262   12.9852   -6.9750 H   0  0  0  0  0  0  0  0  0  0  0  0
    5.9310   13.3154   -5.4094 H   0  0  0  0  0  0  0  0  0  0  0  0
    6.2569   10.2786   -1.9260 H   0  0  0  0  0  0  0  0  0  0  0  0
    7.6548    9.0406   -0.2682 H   0  0  0  0  0  0  0  0  0  0  0  0
   11.2322   11.3090    0.0610 H   0  0  0  0  0  0  0  0  0  0  0  0
   12.6470   10.2036    0.3344 H   0  0  0  0  0  0  0  0  0  0  0  0
   11.8910   11.0720    1.7229 H   0  0  0  0  0  0  0  0  0  0  0  0
  1  2  1  0
  1 43  1  0
  1 44  1  0
  1 45  1  0
  2  3  1  0
  2 46  1  0
  2 47  1  0
  3  4  1  0
  3 48  1  0
  3 49  1  0
  4  5  1  0
  4 50  1  0
  5  6  2  0
  5  7  1  0
  7  8  1  0
  7 15  1  0
  7 51  1  1
  8  9  1  0
  8 52  1  0
  8 53  1  0
  9 10  2  0
  9 14  1  0
 10 11  1  0
 10 54  1  0
 11 12  2  0
 11 55  1  0
 12 13  1  0
 12 56  1  0
 13 14  2  0
 13 57  1  0
 14 58  1  0
 15 16  1  0
 15 24  1  0
 16 17  1  0
 16 59  1  0
 16 60  1  0
 17 18  2  0
 17 23  1  0
 18 19  1  0
 18 61  1  0
 19 20  2  0
 19 62  1  0
 20 21  1  0
 20 22  1  0
 22 23  2  0
 22 63  1  0
 23 64  1  0
 24 25  2  0
 24 26  1  0
 26 27  1  0
 26 65  1  0
 26 66  1  0
 27 28  1  0
 27 67  1  0
 27 68  1  0
 28 29  1  0
 28 69  1  0
 28 70  1  0
 29 30  1  0
 39 29  1  6
 30 31  2  0
 30 38  1  0
 31 32  1  0
 31 71  1  0
 32 33  2  0
 32 72  1  0
 33 34  1  0
 33 37  1  0
 34 35  1  0
 35 36  1  0
 35 73  1  0
 35 74  1  0
 36 75  1  0
 36 76  1  0
 36 77  1  0
 37 38  2  0
 37 78  1  0
 38 79  1  0
 39 40  1  0
 39 41  2  0
 39 42  2  0
 40 80  1  0
 40 81  1  0
 40 82  1  0
M  END

