
     RDKit          3D

 29 30  0  0  0  0  0  0  0  0999 V2000
    0.9195   -0.0533   -0.3906 C   0  0  0  0  0  0  0  0  0  0  0  0
    2.3818   -0.2527   -0.0926 C   0  0  0  0  0  0  0  0  0  0  0  0
    3.3655    0.7523   -0.3963 C   0  0  0  0  0  0  0  0  0  0  0  0
    4.6540    0.4135   -0.0758 C   0  0  0  0  0  0  0  0  0  0  0  0
    5.9186    1.2616   -0.1798 C   0  0  1  0  0  0  0  0  0  0  0  0
    7.1578    0.4537   -0.6382 C   0  0  0  0  0  0  0  0  0  0  0  0
    7.1493    0.1088   -2.0512 N   0  0  0  0  0  0  0  0  0  0  0  0
    6.9524    1.2882   -2.8887 C   0  0  0  0  0  0  0  0  0  0  0  0
    5.7217    2.1093   -2.4877 C   0  0  0  0  0  0  0  0  0  0  0  0
    5.7932    2.4198   -1.0617 N   0  0  0  0  0  0  0  0  0  0  0  0
    4.6789   -1.1894    0.6238 S   0  0  0  0  0  0  0  0  0  0  0  0
    2.9454   -1.3758    0.4731 C   0  0  0  0  0  0  0  0  0  0  0  0
    2.3015   -2.6553    0.9200 C   0  0  0  0  0  0  0  0  0  0  0  0
    0.7402    0.0250   -1.4768 H   0  0  0  0  0  0  0  0  0  0  0  0
    0.5457    0.8798    0.0635 H   0  0  0  0  0  0  0  0  0  0  0  0
    0.2982   -0.8774   -0.0133 H   0  0  0  0  0  0  0  0  0  0  0  0
    3.1016    1.7129   -0.8440 H   0  0  0  0  0  0  0  0  0  0  0  0
    6.1410    1.6456    0.8336 H   0  0  0  0  0  0  0  0  0  0  0  0
    7.2635   -0.4638   -0.0374 H   0  0  0  0  0  0  0  0  0  0  0  0
    8.0464    1.0769   -0.4397 H   0  0  0  0  0  0  0  0  0  0  0  0
    6.4175   -0.5785   -2.2350 H   0  0  0  0  0  0  0  0  0  0  0  0
    6.8775    0.9776   -3.9438 H   0  0  0  0  0  0  0  0  0  0  0  0
    7.8502    1.9254   -2.7965 H   0  0  0  0  0  0  0  0  0  0  0  0
    4.8086    1.5400   -2.7694 H   0  0  0  0  0  0  0  0  0  0  0  0
    5.6997    3.0572   -3.0519 H   0  0  0  0  0  0  0  0  0  0  0  0
    5.0381    3.0341   -0.7684 H   0  0  0  0  0  0  0  0  0  0  0  0
    2.5913   -3.5080    0.2817 H   0  0  0  0  0  0  0  0  0  0  0  0
    1.2059   -2.5743    0.8839 H   0  0  0  0  0  0  0  0  0  0  0  0
    2.5810   -2.9145    1.9546 H   0  0  0  0  0  0  0  0  0  0  0  0
  1  2  1  0
  1 14  1  0
  1 15  1  0
  1 16  1  0
  2  3  1  0
  2 12  2  0
  3  4  2  0
  3 17  1  0
  4  5  1  0
  4 11  1  0
  5  6  1  0
  5 10  1  0
  5 18  1  1
  6  7  1  0
  6 19  1  0
  6 20  1  0
  7  8  1  0
  7 21  1  0
  8  9  1  0
  8 22  1  0
  8 23  1  0
  9 10  1  0
  9 24  1  0
  9 25  1  0
 10 26  1  0
 11 12  1  0
 12 13  1  0
 13 27  1  0
 13 28  1  0
 13 29  1  0
M  END

