
     RDKit          3D

 48 49  0  0  0  0  0  0  0  0999 V2000
    0.6124    0.1660   -0.2198 C   0  0  0  0  0  0  0  0  0  0  0  0
    2.1226   -0.1087   -0.1908 C   0  0  1  0  0  0  0  0  0  0  0  0
    2.4873   -1.5490   -0.6082 C   0  0  0  0  0  0  0  0  0  0  0  0
    2.3201   -1.7999   -2.1141 C   0  0  0  0  0  0  0  0  0  0  0  0
    3.1118   -0.7772   -2.9396 C   0  0  0  0  0  0  0  0  0  0  0  0
    2.7462    0.6610   -2.5483 C   0  0  0  0  0  0  0  0  0  0  0  0
    2.9130    0.9115   -1.0458 C   0  0  2  0  0  0  0  0  0  0  0  0
    4.3125    0.8447   -0.7685 O   0  0  0  0  0  0  0  0  0  0  0  0
    4.7562    1.4711    0.4183 C   0  0  0  0  0  0  0  0  0  0  0  0
    6.2819    1.4664    0.3713 C   0  0  1  0  0  0  0  0  0  0  0  0
    6.7351    2.0747   -0.8166 O   0  0  0  0  0  0  0  0  0  0  0  0
    6.9179    2.2196    1.5378 C   0  0  0  0  0  0  0  0  0  0  0  0
    6.5991    1.5656    2.8020 N   0  0  0  0  0  0  0  0  0  0  0  0
    7.2782    2.2549    3.8482 O   0  0  0  0  0  0  0  0  0  0  0  0
    6.3542    2.6487    4.8490 C   0  0  0  0  0  0  0  0  0  0  0  0
    7.0674    3.4850    5.8854 C   0  0  0  0  0  0  0  0  0  0  0  0
    8.1055    4.3561    5.5212 C   0  0  0  0  0  0  0  0  0  0  0  0
    8.7286    5.1570    6.4817 C   0  0  0  0  0  0  0  0  0  0  0  0
    8.3201    5.1040    7.8182 C   0  0  0  0  0  0  0  0  0  0  0  0
    7.2881    4.2377    8.1899 C   0  0  0  0  0  0  0  0  0  0  0  0
    6.6722    3.4297    7.2298 C   0  0  0  0  0  0  0  0  0  0  0  0
    0.0818   -0.5153    0.4645 H   0  0  0  0  0  0  0  0  0  0  0  0
    0.1739    0.0299   -1.2207 H   0  0  0  0  0  0  0  0  0  0  0  0
    0.3881    1.1971    0.0997 H   0  0  0  0  0  0  0  0  0  0  0  0
    2.4469    0.0288    0.8554 H   0  0  0  0  0  0  0  0  0  0  0  0
    1.8837   -2.2675   -0.0276 H   0  0  0  0  0  0  0  0  0  0  0  0
    3.5406   -1.7316   -0.3360 H   0  0  0  0  0  0  0  0  0  0  0  0
    1.2514   -1.7479   -2.3903 H   0  0  0  0  0  0  0  0  0  0  0  0
    2.6470   -2.8241   -2.3606 H   0  0  0  0  0  0  0  0  0  0  0  0
    2.9369   -0.9305   -4.0176 H   0  0  0  0  0  0  0  0  0  0  0  0
    4.1914   -0.9289   -2.7699 H   0  0  0  0  0  0  0  0  0  0  0  0
    1.6994    0.8713   -2.8261 H   0  0  0  0  0  0  0  0  0  0  0  0
    3.3685    1.3872   -3.0966 H   0  0  0  0  0  0  0  0  0  0  0  0
    2.5577    1.9339   -0.8044 H   0  0  0  0  0  0  0  0  0  0  0  0
    4.4028    0.9552    1.3287 H   0  0  0  0  0  0  0  0  0  0  0  0
    4.3928    2.5186    0.4568 H   0  0  0  0  0  0  0  0  0  0  0  0
    6.6107    0.4033    0.4107 H   0  0  0  0  0  0  0  0  0  0  0  0
    6.1651    1.7271   -1.5194 H   0  0  0  0  0  0  0  0  0  0  0  0
    6.5215    3.2474    1.5664 H   0  0  0  0  0  0  0  0  0  0  0  0
    8.0067    2.2939    1.3535 H   0  0  0  0  0  0  0  0  0  0  0  0
    7.0256    0.6351    2.8077 H   0  0  0  0  0  0  0  0  0  0  0  0
    5.8928    1.7619    5.3233 H   0  0  0  0  0  0  0  0  0  0  0  0
    5.5304    3.2277    4.3857 H   0  0  0  0  0  0  0  0  0  0  0  0
    8.4298    4.3910    4.4796 H   0  0  0  0  0  0  0  0  0  0  0  0
    9.5396    5.8272    6.1843 H   0  0  0  0  0  0  0  0  0  0  0  0
    8.8080    5.7319    8.5683 H   0  0  0  0  0  0  0  0  0  0  0  0
    6.9665    4.1827    9.2333 H   0  0  0  0  0  0  0  0  0  0  0  0
    5.8740    2.7442    7.5305 H   0  0  0  0  0  0  0  0  0  0  0  0
  1  2  1  0
  1 22  1  0
  1 23  1  0
  1 24  1  0
  2  3  1  0
  2  7  1  0
  2 25  1  1
  3  4  1  0
  3 26  1  0
  3 27  1  0
  4  5  1  0
  4 28  1  0
  4 29  1  0
  5  6  1  0
  5 30  1  0
  5 31  1  0
  6  7  1  0
  6 32  1  0
  6 33  1  0
  7  8  1  0
  7 34  1  6
  8  9  1  0
  9 10  1  0
  9 35  1  0
  9 36  1  0
 10 11  1  0
 10 12  1  0
 10 37  1  6
 11 38  1  0
 12 13  1  0
 12 39  1  0
 12 40  1  0
 13 14  1  0
 13 41  1  0
 14 15  1  0
 15 16  1  0
 15 42  1  0
 15 43  1  0
 16 17  2  0
 16 21  1  0
 17 18  1  0
 17 44  1  0
 18 19  2  0
 18 45  1  0
 19 20  1  0
 19 46  1  0
 20 21  2  0
 20 47  1  0
 21 48  1  0
M  END

