
     RDKit          3D

 43 44  0  0  0  0  0  0  0  0999 V2000
    6.7130    2.7206   -0.7157 C   0  0  0  0  0  0  0  0  0  0  0  0
    6.3071    1.3083   -1.1218 C   0  0  0  0  0  0  0  0  0  0  0  0
    4.9359    1.0232   -0.7263 N   0  0  0  0  0  0  0  0  0  0  0  0
    4.4091   -0.2932   -1.0638 C   0  0  1  0  0  0  0  0  0  0  0  0
    4.9804   -1.3329   -0.0611 C   0  0  0  0  0  0  0  0  0  0  0  0
    4.7036   -0.9964    1.3645 C   0  0  0  0  0  0  0  0  0  0  0  0
    3.5887   -1.0700    2.0293 N   0  0  0  0  0  0  0  0  0  0  0  0
    3.9428   -0.6117    3.2797 C   0  0  0  0  0  0  0  0  0  0  0  0
    2.9968   -0.5060    4.4007 C   0  0  0  0  0  0  0  0  0  0  0  0
    3.4067   -0.0243    5.6548 C   0  0  0  0  0  0  0  0  0  0  0  0
    2.4901    0.0663    6.7020 C   0  0  0  0  0  0  0  0  0  0  0  0
    1.1479   -0.3136    6.5452 C   0  0  0  0  0  0  0  0  0  0  0  0
    0.1347   -0.2289    7.6547 C   0  0  0  0  0  0  0  0  0  0  0  0
    0.7753   -0.7890    5.2810 C   0  0  0  0  0  0  0  0  0  0  0  0
   -0.5049   -1.1623    5.0954 F   0  0  0  0  0  0  0  0  0  0  0  0
    1.6603   -0.8925    4.2165 C   0  0  0  0  0  0  0  0  0  0  0  0
    5.2111   -0.2815    3.3796 N   0  0  0  0  0  0  0  0  0  0  0  0
    5.7159   -0.5362    2.1155 O   0  0  0  0  0  0  0  0  0  0  0  0
    2.8603   -0.2486   -1.1301 C   0  0  1  0  0  0  0  0  0  0  0  0
    2.3875    0.5929   -2.3276 C   0  0  0  0  0  0  0  0  0  0  0  0
    2.2192   -1.6412   -1.1907 C   0  0  0  0  0  0  0  0  0  0  0  0
    7.7576    2.9273   -0.9956 H   0  0  0  0  0  0  0  0  0  0  0  0
    6.6074    2.8544    0.3718 H   0  0  0  0  0  0  0  0  0  0  0  0
    6.0806    3.4761   -1.2134 H   0  0  0  0  0  0  0  0  0  0  0  0
    6.9794    0.5890   -0.6239 H   0  0  0  0  0  0  0  0  0  0  0  0
    6.4700    1.1700   -2.2159 H   0  0  0  0  0  0  0  0  0  0  0  0
    4.3207    1.7540   -1.0738 H   0  0  0  0  0  0  0  0  0  0  0  0
    4.7618   -0.6304   -2.0670 H   0  0  0  0  0  0  0  0  0  0  0  0
    6.0710   -1.3889   -0.1842 H   0  0  0  0  0  0  0  0  0  0  0  0
    4.5816   -2.3329   -0.2806 H   0  0  0  0  0  0  0  0  0  0  0  0
    4.4454    0.2768    5.7989 H   0  0  0  0  0  0  0  0  0  0  0  0
    2.8195    0.4429    7.6742 H   0  0  0  0  0  0  0  0  0  0  0  0
    0.5863    0.1722    8.5731 H   0  0  0  0  0  0  0  0  0  0  0  0
   -0.2910   -1.2198    7.8835 H   0  0  0  0  0  0  0  0  0  0  0  0
   -0.7120    0.4190    7.3742 H   0  0  0  0  0  0  0  0  0  0  0  0
    1.3166   -1.2702    3.2532 H   0  0  0  0  0  0  0  0  0  0  0  0
    2.5152    0.2394   -0.2019 H   0  0  0  0  0  0  0  0  0  0  0  0
    2.6837    0.1221   -3.2807 H   0  0  0  0  0  0  0  0  0  0  0  0
    2.7925    1.6175   -2.3273 H   0  0  0  0  0  0  0  0  0  0  0  0
    1.2900    0.6838   -2.3285 H   0  0  0  0  0  0  0  0  0  0  0  0
    2.6289   -2.2399   -2.0231 H   0  0  0  0  0  0  0  0  0  0  0  0
    1.1337   -1.5532   -1.3558 H   0  0  0  0  0  0  0  0  0  0  0  0
    2.3592   -2.1989   -0.2540 H   0  0  0  0  0  0  0  0  0  0  0  0
  1  2  1  0
  1 22  1  0
  1 23  1  0
  1 24  1  0
  2  3  1  0
  2 25  1  0
  2 26  1  0
  3  4  1  0
  3 27  1  0
  4  5  1  0
  4 19  1  0
  4 28  1  6
  5  6  1  0
  5 29  1  0
  5 30  1  0
  6  7  2  0
  6 18  1  0
  7  8  1  0
  8  9  1  0
  8 17  2  0
  9 10  2  0
  9 16  1  0
 10 11  1  0
 10 31  1  0
 11 12  2  0
 11 32  1  0
 12 13  1  0
 12 14  1  0
 13 33  1  0
 13 34  1  0
 13 35  1  0
 14 15  1  0
 14 16  2  0
 16 36  1  0
 17 18  1  0
 19 20  1  0
 19 21  1  0
 19 37  1  1
 20 38  1  0
 20 39  1  0
 20 40  1  0
 21 41  1  0
 21 42  1  0
 21 43  1  0
M  END

