
     RDKit          3D

 59 62  0  0  0  0  0  0  0  0999 V2000
    1.2037   -0.7111   -0.3791 C   0  0  0  0  0  0  0  0  0  0  0  0
    2.6756   -0.4510   -0.0578 C   0  0  0  0  0  0  0  0  0  0  0  0
    3.0569    1.0387   -0.1446 C   0  0  0  0  0  0  0  0  0  0  0  0
    4.5160    1.3053    0.1557 C   0  0  0  0  0  0  0  0  0  0  0  0
    5.4369    1.4848   -0.8848 C   0  0  0  0  0  0  0  0  0  0  0  0
    6.8091    1.6607   -0.6447 C   0  0  0  0  0  0  0  0  0  0  0  0
    7.7485    1.8861   -1.7807 C   0  0  0  0  0  0  0  0  0  0  0  0
    7.4637    2.8832   -2.7370 C   0  0  0  0  0  0  0  0  0  0  0  0
    8.3061    3.1188   -3.8282 C   0  0  0  0  0  0  0  0  0  0  0  0
    9.4625    2.3568   -4.0121 C   0  0  0  0  0  0  0  0  0  0  0  0
    9.7574    1.3560   -3.0812 C   0  0  0  0  0  0  0  0  0  0  0  0
    8.9143    1.1257   -1.9688 C   0  0  0  0  0  0  0  0  0  0  0  0
    9.4506   -0.0394   -1.1577 C   0  0  0  0  0  0  0  0  0  0  0  0
   10.6890   -0.4511   -1.9227 C   0  0  0  0  0  0  0  0  0  0  0  0
   11.6004   -1.4708   -1.6551 C   0  0  0  0  0  0  0  0  0  0  0  0
   12.6887   -1.6547   -2.5186 C   0  0  0  0  0  0  0  0  0  0  0  0
   12.8605   -0.8249   -3.6352 C   0  0  0  0  0  0  0  0  0  0  0  0
   11.9494    0.2002   -3.9081 C   0  0  0  0  0  0  0  0  0  0  0  0
   10.8617    0.3853   -3.0470 C   0  0  0  0  0  0  0  0  0  0  0  0
    7.2523    1.6389    0.6873 C   0  0  0  0  0  0  0  0  0  0  0  0
    6.3714    1.4620    1.7628 C   0  0  0  0  0  0  0  0  0  0  0  0
    6.8854    1.3811    3.1855 C   0  0  0  0  0  0  0  0  0  0  0  0
    7.0093   -0.0597    3.7282 C   0  0  0  0  0  0  0  0  0  0  0  0
    8.0641   -0.9192    3.0309 C   0  0  0  0  0  0  0  0  0  0  0  0
    4.9995    1.3116    1.4774 C   0  0  0  0  0  0  0  0  0  0  0  0
    4.1132    1.1228    2.5232 O   0  0  0  0  0  0  0  0  0  0  0  0
    3.5419    2.3035    3.0925 C   0  0  0  0  0  0  0  0  0  0  0  0
    2.9919    1.9285    4.4569 C   0  0  0  0  0  0  0  0  0  0  0  0
    3.9949    1.4477    5.3209 O   0  0  0  0  0  0  0  0  0  0  0  0
    0.9607   -1.7835   -0.3106 H   0  0  0  0  0  0  0  0  0  0  0  0
    0.9477   -0.3769   -1.3988 H   0  0  0  0  0  0  0  0  0  0  0  0
    0.5390   -0.1749    0.3191 H   0  0  0  0  0  0  0  0  0  0  0  0
    3.3173   -1.0253   -0.7485 H   0  0  0  0  0  0  0  0  0  0  0  0
    2.9090   -0.8154    0.9563 H   0  0  0  0  0  0  0  0  0  0  0  0
    2.4133    1.6063    0.5471 H   0  0  0  0  0  0  0  0  0  0  0  0
    2.8265    1.4124   -1.1566 H   0  0  0  0  0  0  0  0  0  0  0  0
    5.0743    1.4748   -1.9164 H   0  0  0  0  0  0  0  0  0  0  0  0
    6.5686    3.4962   -2.6067 H   0  0  0  0  0  0  0  0  0  0  0  0
    8.0541    3.9081   -4.5413 H   0  0  0  0  0  0  0  0  0  0  0  0
   10.1155    2.5360   -4.8698 H   0  0  0  0  0  0  0  0  0  0  0  0
    8.7113   -0.8571   -1.0826 H   0  0  0  0  0  0  0  0  0  0  0  0
    9.6966    0.2411   -0.1199 H   0  0  0  0  0  0  0  0  0  0  0  0
   11.4719   -2.1214   -0.7853 H   0  0  0  0  0  0  0  0  0  0  0  0
   13.4097   -2.4519   -2.3202 H   0  0  0  0  0  0  0  0  0  0  0  0
   13.7151   -0.9814   -4.2987 H   0  0  0  0  0  0  0  0  0  0  0  0
   12.0891    0.8436   -4.7806 H   0  0  0  0  0  0  0  0  0  0  0  0
    8.3125    1.7919    0.9020 H   0  0  0  0  0  0  0  0  0  0  0  0
    6.2219    1.9371    3.8645 H   0  0  0  0  0  0  0  0  0  0  0  0
    7.8724    1.8706    3.2386 H   0  0  0  0  0  0  0  0  0  0  0  0
    6.0246   -0.5532    3.6496 H   0  0  0  0  0  0  0  0  0  0  0  0
    7.2417    0.0004    4.8060 H   0  0  0  0  0  0  0  0  0  0  0  0
    7.8485   -1.0352    1.9568 H   0  0  0  0  0  0  0  0  0  0  0  0
    8.1090   -1.9279    3.4718 H   0  0  0  0  0  0  0  0  0  0  0  0
    9.0687   -0.4723    3.1233 H   0  0  0  0  0  0  0  0  0  0  0  0
    2.7376    2.7019    2.4453 H   0  0  0  0  0  0  0  0  0  0  0  0
    4.3151    3.0853    3.1947 H   0  0  0  0  0  0  0  0  0  0  0  0
    2.1742    1.1904    4.3264 H   0  0  0  0  0  0  0  0  0  0  0  0
    2.5528    2.8246    4.9251 H   0  0  0  0  0  0  0  0  0  0  0  0
    4.3884    0.6773    4.8869 H   0  0  0  0  0  0  0  0  0  0  0  0
  1  2  1  0
  1 30  1  0
  1 31  1  0
  1 32  1  0
  2  3  1  0
  2 33  1  0
  2 34  1  0
  3  4  1  0
  3 35  1  0
  3 36  1  0
  4  5  2  0
  4 25  1  0
  5  6  1  0
  5 37  1  0
  6  7  1  0
  6 20  2  0
  7  8  2  0
  7 12  1  0
  8  9  1  0
  8 38  1  0
  9 10  2  0
  9 39  1  0
 10 11  1  0
 10 40  1  0
 11 12  2  0
 11 19  1  0
 12 13  1  0
 13 14  1  0
 13 41  1  0
 13 42  1  0
 14 15  1  0
 14 19  2  0
 15 16  2  0
 15 43  1  0
 16 17  1  0
 16 44  1  0
 17 18  2  0
 17 45  1  0
 18 19  1  0
 18 46  1  0
 20 21  1  0
 20 47  1  0
 21 22  1  0
 21 25  2  0
 22 23  1  0
 22 48  1  0
 22 49  1  0
 23 24  1  0
 23 50  1  0
 23 51  1  0
 24 52  1  0
 24 53  1  0
 24 54  1  0
 25 26  1  0
 26 27  1  0
 27 28  1  0
 27 55  1  0
 27 56  1  0
 28 29  1  0
 28 57  1  0
 28 58  1  0
 29 59  1  0
M  END

