
     RDKit          3D

 32 33  0  0  0  0  0  0  0  0999 V2000
    1.6108   -0.5898    3.2598 C   0  0  0  0  0  0  0  0  0  0  0  0
    2.0190   -0.1052    1.9614 N   0  0  0  0  0  0  0  0  0  0  0  0
    2.6022    1.1087    1.8386 N   0  0  0  0  0  0  0  0  0  0  0  0
    2.8446    1.2442    0.5407 C   0  0  0  0  0  0  0  0  0  0  0  0
    2.4235    0.1193   -0.2085 C   0  0  0  0  0  0  0  0  0  0  0  0
    1.8932   -0.7321    0.7526 C   0  0  0  0  0  0  0  0  0  0  0  0
    1.3176   -1.9954    0.6662 N   0  0  0  0  0  0  0  0  0  0  0  0
    1.1303   -2.7105   -0.4883 C   0  0  0  0  0  0  0  0  0  0  0  0
    1.4466   -2.3415   -1.6028 O   0  0  0  0  0  0  0  0  0  0  0  0
    0.4716   -4.0738   -0.2613 C   0  0  1  0  0  0  0  0  0  0  0  0
    1.3599   -5.2540   -0.6913 C   0  0  0  0  0  0  0  0  0  0  0  0
    0.8824   -6.3668    0.2451 C   0  0  0  0  0  0  0  0  0  0  0  0
    0.5860   -5.6095    1.5434 C   0  0  2  0  0  0  0  0  0  0  0  0
   -0.5022   -6.2019    2.4344 C   0  0  0  0  0  0  0  0  0  0  0  0
   -1.7596   -6.3179    1.7130 N   0  0  0  0  0  0  0  0  0  0  0  0
    0.1636   -4.2940    1.1183 O   0  0  0  0  0  0  0  0  0  0  0  0
    1.8757    0.1854    3.9883 H   0  0  0  0  0  0  0  0  0  0  0  0
    2.1346   -1.5232    3.5282 H   0  0  0  0  0  0  0  0  0  0  0  0
    0.5220   -0.7630    3.3054 H   0  0  0  0  0  0  0  0  0  0  0  0
    3.3195    2.1537    0.1726 H   0  0  0  0  0  0  0  0  0  0  0  0
    2.4809   -0.0712   -1.2740 H   0  0  0  0  0  0  0  0  0  0  0  0
    0.9715   -2.4573    1.5038 H   0  0  0  0  0  0  0  0  0  0  0  0
   -0.4668   -4.0683   -0.8468 H   0  0  0  0  0  0  0  0  0  0  0  0
    2.4203   -5.0138   -0.5090 H   0  0  0  0  0  0  0  0  0  0  0  0
    1.2499   -5.4836   -1.7595 H   0  0  0  0  0  0  0  0  0  0  0  0
    1.6283   -7.1626    0.3891 H   0  0  0  0  0  0  0  0  0  0  0  0
   -0.0514   -6.8199   -0.1210 H   0  0  0  0  0  0  0  0  0  0  0  0
    1.5105   -5.5007    2.1439 H   0  0  0  0  0  0  0  0  0  0  0  0
   -0.5569   -5.5860    3.3579 H   0  0  0  0  0  0  0  0  0  0  0  0
   -0.1699   -7.2063    2.7499 H   0  0  0  0  0  0  0  0  0  0  0  0
   -2.1127   -5.3849    1.4988 H   0  0  0  0  0  0  0  0  0  0  0  0
   -2.4658   -6.7802    2.2832 H   0  0  0  0  0  0  0  0  0  0  0  0
  1  2  1  0
  1 17  1  0
  1 18  1  0
  1 19  1  0
  2  3  1  0
  2  6  1  0
  3  4  2  0
  4  5  1  0
  4 20  1  0
  5  6  2  0
  5 21  1  0
  6  7  1  0
  7  8  1  0
  7 22  1  0
  8  9  2  0
  8 10  1  0
 10 11  1  0
 10 16  1  0
 10 23  1  6
 11 12  1  0
 11 24  1  0
 11 25  1  0
 12 13  1  0
 12 26  1  0
 12 27  1  0
 13 14  1  0
 13 16  1  0
 13 28  1  1
 14 15  1  0
 14 29  1  0
 14 30  1  0
 15 31  1  0
 15 32  1  0
M  END

