
     RDKit          3D

465531  0  0  0  0  0  0  0  0999 V2000
    3.3002    4.4270    3.6661 C   0  0  0  0  0  0  0  0  0  0  0  0
    4.5936    4.5392    3.3504 C   0  0  0  0  0  0  0  0  0  0  0  0
    5.0557    4.8284    2.0773 C   0  0  0  0  0  0  0  0  0  0  0  0
    6.4146    4.7529    2.0246 N   0  0  0  0  0  0  0  0  0  0  0  0
    7.2456    4.7745    0.8468 C   0  0  0  0  0  0  0  0  0  0  0  0
    6.8879    3.9827   -0.2725 C   0  0  0  0  0  0  0  0  0  0  0  0
    7.7315    3.8831   -1.3858 C   0  0  0  0  0  0  0  0  0  0  0  0
    8.9406    4.5752   -1.3582 C   0  0  0  0  0  0  0  0  0  0  0  0
    9.2807    5.3809   -0.2939 C   0  0  0  0  0  0  0  0  0  0  0  0
    8.4544    5.5112    0.8247 C   0  0  0  0  0  0  0  0  0  0  0  0
   10.5432    5.8644   -0.5744 C   0  0  0  0  0  0  0  0  0  0  0  0
   11.4008    6.6802    0.1578 C   0  0  0  0  0  0  0  0  0  0  0  0
   12.6777    6.9494   -0.3795 C   0  0  0  0  0  0  0  0  0  0  0  0
   13.5993    7.7821    0.3428 N   0  0  0  0  0  0  0  0  0  0  0  0
   14.2214    8.9029   -0.1027 C   0  0  0  0  0  0  0  0  0  0  0  0
   14.0887    9.5246   -1.3487 C   0  0  0  0  0  0  0  0  0  0  0  0
   14.8252   10.6999   -1.5841 C   0  0  0  0  0  0  0  0  0  0  0  0
   15.6647   11.2348   -0.5827 C   0  0  0  0  0  0  0  0  0  0  0  0
   15.7740   10.6042    0.6690 C   0  0  0  0  0  0  0  0  0  0  0  0
   15.0344    9.4413    0.8760 C   0  0  0  0  0  0  0  0  0  0  0  0
   14.9143    8.6209    1.9751 C   0  0  0  0  0  0  0  0  0  0  0  0
   15.5089    8.6723    3.2344 C   0  0  0  0  0  0  0  0  0  0  0  0
   15.1896    7.6551    4.1506 C   0  0  0  0  0  0  0  0  0  0  0  0
   14.2996    6.6196    3.7909 C   0  0  0  0  0  0  0  0  0  0  0  0
   13.7135    6.5910    2.5123 C   0  0  0  0  0  0  0  0  0  0  0  0
   14.0317    7.6194    1.6189 C   0  0  0  0  0  0  0  0  0  0  0  0
   13.0551    6.3864   -1.6254 C   0  0  0  0  0  0  0  0  0  0  0  0
   12.1716    5.5573   -2.3397 C   0  0  0  0  0  0  0  0  0  0  0  0
   10.9130    5.3175   -1.7902 C   0  0  0  0  0  0  0  0  0  0  0  0
    9.9316    4.5259   -2.2784 N   0  0  0  0  0  0  0  0  0  0  0  0
    9.9647    3.6419   -3.4040 C   0  0  0  0  0  0  0  0  0  0  0  0
    9.5389    4.1150   -4.6638 C   0  0  0  0  0  0  0  0  0  0  0  0
    9.0701    3.2187   -5.6395 C   0  0  0  0  0  0  0  0  0  0  0  0
    9.0365    1.8517   -5.3314 C   0  0  0  0  0  0  0  0  0  0  0  0
    9.5798    1.3886   -4.1486 C   0  0  0  0  0  0  0  0  0  0  0  0
   10.0483    2.2567   -3.1655 C   0  0  0  0  0  0  0  0  0  0  0  0
    9.2060    0.0729   -4.0378 C   0  0  0  0  0  0  0  0  0  0  0  0
    9.2525   -0.7850   -2.9353 C   0  0  0  0  0  0  0  0  0  0  0  0
    8.5514   -2.0059   -3.0085 C   0  0  0  0  0  0  0  0  0  0  0  0
    8.4700   -2.8748   -1.8638 N   0  0  0  0  0  0  0  0  0  0  0  0
    7.3526   -3.4613   -1.3576 C   0  0  0  0  0  0  0  0  0  0  0  0
    6.0246   -3.2790   -1.7583 C   0  0  0  0  0  0  0  0  0  0  0  0
    5.0315   -4.0566   -1.1421 C   0  0  0  0  0  0  0  0  0  0  0  0
    5.3646   -4.9919   -0.1328 C   0  0  0  0  0  0  0  0  0  0  0  0
    4.3486   -5.8449    0.4187 N   0  0  0  0  0  0  0  0  0  0  0  0
    3.5072   -6.6660   -0.2606 C   0  0  0  0  0  0  0  0  0  0  0  0
    3.4575   -6.9013   -1.6388 C   0  0  0  0  0  0  0  0  0  0  0  0
    2.4824   -7.7917   -2.1241 C   0  0  0  0  0  0  0  0  0  0  0  0
    1.5846   -8.4263   -1.2389 C   0  0  0  0  0  0  0  0  0  0  0  0
    1.6581   -8.1882    0.1444 C   0  0  0  0  0  0  0  0  0  0  0  0
    2.6385   -7.3085    0.5999 C   0  0  0  0  0  0  0  0  0  0  0  0
    2.9546   -6.8718    1.8669 C   0  0  0  0  0  0  0  0  0  0  0  0
    2.3917   -7.1606    3.1082 C   0  0  0  0  0  0  0  0  0  0  0  0
    2.9285   -6.5152    4.2355 C   0  0  0  0  0  0  0  0  0  0  0  0
    3.9948   -5.6006    4.0976 C   0  0  0  0  0  0  0  0  0  0  0  0
    4.5370   -5.3162    2.8309 C   0  0  0  0  0  0  0  0  0  0  0  0
    4.0026   -5.9821    1.7234 C   0  0  0  0  0  0  0  0  0  0  0  0
    6.7019   -5.1134    0.2987 C   0  0  0  0  0  0  0  0  0  0  0  0
    7.6664   -4.3297   -0.3327 C   0  0  0  0  0  0  0  0  0  0  0  0
    9.0324   -4.2675   -0.1784 C   0  0  0  0  0  0  0  0  0  0  0  0
    9.8895   -4.9460    0.6834 C   0  0  0  0  0  0  0  0  0  0  0  0
   11.2732   -4.7004    0.5705 C   0  0  0  0  0  0  0  0  0  0  0  0
   12.1942   -5.3651    1.4505 N   0  0  0  0  0  0  0  0  0  0  0  0
   13.2604   -6.1304    1.1050 C   0  0  0  0  0  0  0  0  0  0  0  0
   13.6922   -6.4772   -0.1794 C   0  0  0  0  0  0  0  0  0  0  0  0
   14.8228   -7.3063   -0.2966 C   0  0  0  0  0  0  0  0  0  0  0  0
   15.4907   -7.7779    0.8547 C   0  0  0  0  0  0  0  0  0  0  0  0
   15.0330   -7.4312    2.1378 C   0  0  0  0  0  0  0  0  0  0  0  0
   13.9117   -6.6084    2.2258 C   0  0  0  0  0  0  0  0  0  0  0  0
   13.2229   -6.1196    3.3132 C   0  0  0  0  0  0  0  0  0  0  0  0
   13.4329   -6.2701    4.6826 C   0  0  0  0  0  0  0  0  0  0  0  0
   12.5460   -5.6169    5.5562 C   0  0  0  0  0  0  0  0  0  0  0  0
   11.4862   -4.8339    5.0486 C   0  0  0  0  0  0  0  0  0  0  0  0
   11.2968   -4.6983    3.6613 C   0  0  0  0  0  0  0  0  0  0  0  0
   12.1808   -5.3667    2.8075 C   0  0  0  0  0  0  0  0  0  0  0  0
   11.7525   -3.8016   -0.4142 C   0  0  0  0  0  0  0  0  0  0  0  0
   10.8639   -3.1395   -1.2798 C   0  0  0  0  0  0  0  0  0  0  0  0
    9.4946   -3.3763   -1.1274 C   0  0  0  0  0  0  0  0  0  0  0  0
    7.8562   -2.3393   -4.1920 C   0  0  0  0  0  0  0  0  0  0  0  0
    7.7653   -1.4310   -5.2532 C   0  0  0  0  0  0  0  0  0  0  0  0
    8.4441   -0.2076   -5.1561 C   0  0  0  0  0  0  0  0  0  0  0  0
    8.2724    0.8981   -5.9383 N   0  0  0  0  0  0  0  0  0  0  0  0
    7.0061    1.1837   -6.5793 C   0  0  0  0  0  0  0  0  0  0  0  0
    6.4759    0.3186   -7.5530 C   0  0  0  0  0  0  0  0  0  0  0  0
    5.0880    0.2541   -7.7581 C   0  0  0  0  0  0  0  0  0  0  0  0
    4.2272    1.1051   -7.0407 C   0  0  0  0  0  0  0  0  0  0  0  0
    2.7789    0.8209   -6.9049 C   0  0  0  0  0  0  0  0  0  0  0  0
    2.2701   -0.3936   -7.2502 N   0  0  0  0  0  0  0  0  0  0  0  0
    1.0021   -0.7374   -6.8886 C   0  0  0  0  0  0  0  0  0  0  0  0
    0.5210   -2.1334   -7.0527 C   0  0  0  0  0  0  0  0  0  0  0  0
    1.4197   -3.1922   -7.2904 C   0  0  0  0  0  0  0  0  0  0  0  0
    1.0393   -4.5173   -7.0233 C   0  0  0  0  0  0  0  0  0  0  0  0
   -0.2340   -4.7943   -6.4987 C   0  0  0  0  0  0  0  0  0  0  0  0
   -0.4424   -5.9587   -5.6658 N   0  0  0  0  0  0  0  0  0  0  0  0
    0.0179   -5.9689   -4.3813 C   0  0  0  0  0  0  0  0  0  0  0  0
    1.0236   -5.1351   -3.8804 C   0  0  0  0  0  0  0  0  0  0  0  0
    0.9340   -4.7021   -2.5583 C   0  0  0  0  0  0  0  0  0  0  0  0
   -0.1488   -5.1028   -1.7349 C   0  0  0  0  0  0  0  0  0  0  0  0
   -0.6783   -4.1315   -0.8011 N   0  0  0  0  0  0  0  0  0  0  0  0
   -1.7130   -3.3195   -1.1702 C   0  0  0  0  0  0  0  0  0  0  0  0
   -2.8083   -3.6544   -1.9792 C   0  0  0  0  0  0  0  0  0  0  0  0
   -3.6417   -2.6315   -2.4414 C   0  0  0  0  0  0  0  0  0  0  0  0
   -3.3662   -1.2816   -2.1485 C   0  0  0  0  0  0  0  0  0  0  0  0
   -4.1853   -0.2516   -2.7267 N   0  0  0  0  0  0  0  0  0  0  0  0
   -4.4312   -0.0257   -4.0457 C   0  0  0  0  0  0  0  0  0  0  0  0
   -5.3029    1.0375   -4.2077 C   0  0  0  0  0  0  0  0  0  0  0  0
   -5.6354    1.4595   -2.9394 C   0  0  0  0  0  0  0  0  0  0  0  0
   -6.4886    2.4686   -2.4982 C   0  0  0  0  0  0  0  0  0  0  0  0
   -6.6572    2.6203   -1.1137 C   0  0  0  0  0  0  0  0  0  0  0  0
   -5.9685    1.7803   -0.2122 C   0  0  0  0  0  0  0  0  0  0  0  0
   -5.0955    0.7863   -0.6833 C   0  0  0  0  0  0  0  0  0  0  0  0
   -4.9397    0.6537   -2.0624 C   0  0  0  0  0  0  0  0  0  0  0  0
   -5.6747    1.5268   -5.3926 C   0  0  0  0  0  0  0  0  0  0  0  0
   -4.9854    1.0212   -6.6373 C   0  0  0  0  0  0  0  0  0  0  0  0
   -4.4465   -0.4235   -6.4791 C   0  0  0  0  0  0  0  0  0  0  0  0
   -3.9345   -0.7119   -5.0837 C   0  0  0  0  0  0  0  0  0  0  0  0
   -2.2678   -0.9532   -1.3246 C   0  0  0  0  0  0  0  0  0  0  0  0
   -1.4769   -1.9995   -0.8364 C   0  0  0  0  0  0  0  0  0  0  0  0
   -0.2720   -1.9875   -0.1779 C   0  0  0  0  0  0  0  0  0  0  0  0
    0.6172   -0.9368    0.0396 C   0  0  0  0  0  0  0  0  0  0  0  0
    1.9240   -1.2458    0.4665 C   0  0  0  0  0  0  0  0  0  0  0  0
    2.9684   -0.2718    0.3521 N   0  0  0  0  0  0  0  0  0  0  0  0
    3.6704   -0.0361   -0.7850 C   0  0  0  0  0  0  0  0  0  0  0  0
    3.3241   -0.3980   -2.0923 C   0  0  0  0  0  0  0  0  0  0  0  0
    4.2484   -0.1364   -3.1195 C   0  0  0  0  0  0  0  0  0  0  0  0
    5.5055    0.4318   -2.8224 C   0  0  0  0  0  0  0  0  0  0  0  0
    5.8497    0.7540   -1.4996 C   0  0  0  0  0  0  0  0  0  0  0  0
    4.8966    0.5339   -0.5080 C   0  0  0  0  0  0  0  0  0  0  0  0
    4.9582    0.6711    0.8595 C   0  0  0  0  0  0  0  0  0  0  0  0
    5.9825    1.1069    1.6975 C   0  0  0  0  0  0  0  0  0  0  0  0
    5.7623    1.0463    3.0834 C   0  0  0  0  0  0  0  0  0  0  0  0
    4.5430    0.5540    3.5950 C   0  0  0  0  0  0  0  0  0  0  0  0
    3.5364    0.0914    2.7265 C   0  0  0  0  0  0  0  0  0  0  0  0
    3.7709    0.1658    1.3528 C   0  0  0  0  0  0  0  0  0  0  0  0
    2.2817   -2.5880    0.7212 C   0  0  0  0  0  0  0  0  0  0  0  0
    1.3972   -3.6274    0.4096 C   0  0  0  0  0  0  0  0  0  0  0  0
    0.1373   -3.3037   -0.0946 C   0  0  0  0  0  0  0  0  0  0  0  0
   -0.9588   -6.1722   -2.1616 C   0  0  0  0  0  0  0  0  0  0  0  0
   -0.8960   -6.5445   -3.5133 C   0  0  0  0  0  0  0  0  0  0  0  0
   -1.9352   -6.9819   -4.3004 C   0  0  0  0  0  0  0  0  0  0  0  0
   -3.2431   -7.2573   -3.9099 C   0  0  0  0  0  0  0  0  0  0  0  0
   -4.2683   -7.1800   -4.8699 C   0  0  0  0  0  0  0  0  0  0  0  0
   -5.6237   -7.0254   -4.4141 N   0  0  0  0  0  0  0  0  0  0  0  0
   -6.2754   -5.8312   -4.3677 C   0  0  0  0  0  0  0  0  0  0  0  0
   -5.9025   -4.6346   -4.9931 C   0  0  0  0  0  0  0  0  0  0  0  0
   -6.5498   -3.4491   -4.6111 C   0  0  0  0  0  0  0  0  0  0  0  0
   -7.5237   -3.4509   -3.5872 C   0  0  0  0  0  0  0  0  0  0  0  0
   -8.0253   -2.2062   -3.0684 N   0  0  0  0  0  0  0  0  0  0  0  0
   -8.5392   -1.1601   -3.7656 C   0  0  0  0  0  0  0  0  0  0  0  0
   -8.7165   -1.0462   -5.1487 C   0  0  0  0  0  0  0  0  0  0  0  0
   -9.2498    0.1542   -5.6520 C   0  0  0  0  0  0  0  0  0  0  0  0
   -9.6090    1.2033   -4.7784 C   0  0  0  0  0  0  0  0  0  0  0  0
   -9.4458    1.0625   -3.3900 C   0  0  0  0  0  0  0  0  0  0  0  0
   -8.9094   -0.1335   -2.9180 C   0  0  0  0  0  0  0  0  0  0  0  0
   -8.6073   -0.5530   -1.6432 C   0  0  0  0  0  0  0  0  0  0  0  0
   -8.7461    0.0780   -0.4089 C   0  0  0  0  0  0  0  0  0  0  0  0
   -8.2644   -0.5928    0.7286 C   0  0  0  0  0  0  0  0  0  0  0  0
   -7.6536   -1.8585    0.6054 C   0  0  0  0  0  0  0  0  0  0  0  0
   -7.5386   -2.4797   -0.6505 C   0  0  0  0  0  0  0  0  0  0  0  0
   -8.0515   -1.8105   -1.7684 C   0  0  0  0  0  0  0  0  0  0  0  0
   -7.9107   -4.6713   -2.9962 C   0  0  0  0  0  0  0  0  0  0  0  0
   -7.2670   -5.8374   -3.4068 C   0  0  0  0  0  0  0  0  0  0  0  0
   -7.2361   -7.0828   -2.8272 C   0  0  0  0  0  0  0  0  0  0  0  0
   -7.8490   -7.5523   -1.6677 C   0  0  0  0  0  0  0  0  0  0  0  0
   -7.4258   -8.7909   -1.1477 C   0  0  0  0  0  0  0  0  0  0  0  0
   -7.9332   -9.2419    0.1174 N   0  0  0  0  0  0  0  0  0  0  0  0
   -7.2214   -9.4627    1.2516 C   0  0  0  0  0  0  0  0  0  0  0  0
   -5.8401   -9.3408    1.4391 C   0  0  0  0  0  0  0  0  0  0  0  0
   -5.3235   -9.5713    2.7271 C   0  0  0  0  0  0  0  0  0  0  0  0
   -6.1829   -9.9025    3.7972 C   0  0  0  0  0  0  0  0  0  0  0  0
   -7.5704  -10.0031    3.5938 C   0  0  0  0  0  0  0  0  0  0  0  0
   -8.0558   -9.7749    2.3075 C   0  0  0  0  0  0  0  0  0  0  0  0
   -9.3393   -9.7447    1.8095 C   0  0  0  0  0  0  0  0  0  0  0  0
  -10.5728   -9.9590    2.4215 C   0  0  0  0  0  0  0  0  0  0  0  0
  -11.7269   -9.8348    1.6283 C   0  0  0  0  0  0  0  0  0  0  0  0
  -11.6243   -9.5017    0.2596 C   0  0  0  0  0  0  0  0  0  0  0  0
  -10.3665   -9.2856   -0.3322 C   0  0  0  0  0  0  0  0  0  0  0  0
   -9.2309   -9.4099    0.4737 C   0  0  0  0  0  0  0  0  0  0  0  0
   -6.4245   -9.5331   -1.8185 C   0  0  0  0  0  0  0  0  0  0  0  0
   -5.8102   -9.0269   -2.9769 C   0  0  0  0  0  0  0  0  0  0  0  0
   -6.2255   -7.7809   -3.4575 C   0  0  0  0  0  0  0  0  0  0  0  0
   -3.9397   -6.9437   -6.2239 C   0  0  0  0  0  0  0  0  0  0  0  0
   -2.6159   -6.6496   -6.5953 C   0  0  0  0  0  0  0  0  0  0  0  0
   -1.6278   -6.6257   -5.6014 C   0  0  0  0  0  0  0  0  0  0  0  0
   -1.1792   -3.7544   -6.4422 C   0  0  0  0  0  0  0  0  0  0  0  0
   -0.8075   -2.4424   -6.7264 C   0  0  0  0  0  0  0  0  0  0  0  0
    0.2655    0.1309   -6.1378 N   0  0  0  0  0  0  0  0  0  0  0  0
    0.7689    1.3372   -5.7714 C   0  0  0  0  0  0  0  0  0  0  0  0
    0.0803    2.1726   -4.7539 C   0  0  0  0  0  0  0  0  0  0  0  0
    0.8061    3.1430   -4.0335 C   0  0  0  0  0  0  0  0  0  0  0  0
    0.2339    3.7937   -2.9379 C   0  0  0  0  0  0  0  0  0  0  0  0
   -1.0793    3.5062   -2.5523 C   0  0  0  0  0  0  0  0  0  0  0  0
   -1.5915    4.0260   -1.3133 N   0  0  0  0  0  0  0  0  0  0  0  0
   -1.1918    3.6425   -0.0728 C   0  0  0  0  0  0  0  0  0  0  0  0
   -0.1882    2.7235    0.2436 C   0  0  0  0  0  0  0  0  0  0  0  0
   -0.2029    2.1381    1.5220 C   0  0  0  0  0  0  0  0  0  0  0  0
   -1.2146    2.4653    2.4534 C   0  0  0  0  0  0  0  0  0  0  0  0
   -1.5299    1.5346    3.5029 N   0  0  0  0  0  0  0  0  0  0  0  0
   -2.6660    0.7937    3.5877 C   0  0  0  0  0  0  0  0  0  0  0  0
   -3.8032    0.8750    2.7776 C   0  0  0  0  0  0  0  0  0  0  0  0
   -4.8450   -0.0365    2.9986 C   0  0  0  0  0  0  0  0  0  0  0  0
   -4.7375   -1.0319    3.9942 C   0  0  0  0  0  0  0  0  0  0  0  0
   -5.8150   -1.9626    4.1764 N   0  0  0  0  0  0  0  0  0  0  0  0
   -5.8190   -3.2871    3.8723 C   0  0  0  0  0  0  0  0  0  0  0  0
   -7.0907   -3.8185    4.0166 C   0  0  0  0  0  0  0  0  0  0  0  0
   -7.9076   -2.7715    4.3929 C   0  0  0  0  0  0  0  0  0  0  0  0
   -9.2803   -2.7086    4.6329 C   0  0  0  0  0  0  0  0  0  0  0  0
   -9.8313   -1.4593    4.9668 C   0  0  0  0  0  0  0  0  0  0  0  0
   -9.0130   -0.3116    5.0431 C   0  0  0  0  0  0  0  0  0  0  0  0
   -7.6319   -0.4020    4.7947 C   0  0  0  0  0  0  0  0  0  0  0  0
   -7.1012   -1.6557    4.4728 C   0  0  0  0  0  0  0  0  0  0  0  0
   -7.3962   -5.0968    3.7811 C   0  0  0  0  0  0  0  0  0  0  0  0
   -6.2810   -6.0706    3.4837 C   0  0  0  0  0  0  0  0  0  0  0  0
   -5.0467   -5.3869    2.8390 C   0  0  0  0  0  0  0  0  0  0  0  0
   -4.7929   -3.9965    3.3820 C   0  0  0  0  0  0  0  0  0  0  0  0
   -3.5707   -1.1188    4.7836 C   0  0  0  0  0  0  0  0  0  0  0  0
   -2.5580   -0.1840    4.5561 C   0  0  0  0  0  0  0  0  0  0  0  0
   -1.2978   -0.0486    5.0962 C   0  0  0  0  0  0  0  0  0  0  0  0
   -0.6325   -0.7846    6.0733 C   0  0  0  0  0  0  0  0  0  0  0  0
    0.6945   -0.4233    6.3840 C   0  0  0  0  0  0  0  0  0  0  0  0
    1.4201   -1.1478    7.3902 N   0  0  0  0  0  0  0  0  0  0  0  0
    2.6225   -1.7614    7.2570 C   0  0  0  0  0  0  0  0  0  0  0  0
    3.3921   -1.9001    6.0994 C   0  0  0  0  0  0  0  0  0  0  0  0
    4.6249   -2.5684    6.1978 C   0  0  0  0  0  0  0  0  0  0  0  0
    5.0515   -3.1090    7.4305 C   0  0  0  0  0  0  0  0  0  0  0  0
    4.2493   -2.9867    8.5791 C   0  0  0  0  0  0  0  0  0  0  0  0
    3.0382   -2.3079    8.4551 C   0  0  0  0  0  0  0  0  0  0  0  0
    2.0494   -2.0274    9.3716 C   0  0  0  0  0  0  0  0  0  0  0  0
    1.9404   -2.3192   10.7299 C   0  0  0  0  0  0  0  0  0  0  0  0
    0.7966   -1.8617   11.4074 C   0  0  0  0  0  0  0  0  0  0  0  0
   -0.1958   -1.1260   10.7234 C   0  0  0  0  0  0  0  0  0  0  0  0
   -0.0598   -0.8428    9.3520 C   0  0  0  0  0  0  0  0  0  0  0  0
    1.0769   -1.3193    8.6914 C   0  0  0  0  0  0  0  0  0  0  0  0
    1.3108    0.6574    5.7050 C   0  0  0  0  0  0  0  0  0  0  0  0
    0.6198    1.3740    4.7124 C   0  0  0  0  0  0  0  0  0  0  0  0
   -0.6933    0.9980    4.4251 C   0  0  0  0  0  0  0  0  0  0  0  0
   -2.1077    3.5175    2.1697 C   0  0  0  0  0  0  0  0  0  0  0  0
   -2.0818    4.0708    0.8914 C   0  0  0  0  0  0  0  0  0  0  0  0
   -3.0568    4.7757    0.2291 C   0  0  0  0  0  0  0  0  0  0  0  0
   -4.2463    5.3238    0.6957 C   0  0  0  0  0  0  0  0  0  0  0  0
   -5.1943    5.7660   -0.2473 C   0  0  0  0  0  0  0  0  0  0  0  0
   -6.4826    6.2438    0.1927 N   0  0  0  0  0  0  0  0  0  0  0  0
   -7.1670    7.3228   -0.2704 C   0  0  0  0  0  0  0  0  0  0  0  0
   -6.7304    8.3013   -1.1693 C   0  0  0  0  0  0  0  0  0  0  0  0
   -7.6164    9.3410   -1.5024 C   0  0  0  0  0  0  0  0  0  0  0  0
   -8.9131    9.3998   -0.9357 C   0  0  0  0  0  0  0  0  0  0  0  0
   -9.8061   10.4687   -1.2884 N   0  0  0  0  0  0  0  0  0  0  0  0
  -10.2110   10.8277   -2.5328 C   0  0  0  0  0  0  0  0  0  0  0  0
   -9.8814   10.2278   -3.7527 C   0  0  0  0  0  0  0  0  0  0  0  0
  -10.4408   10.7641   -4.9269 C   0  0  0  0  0  0  0  0  0  0  0  0
  -11.3163   11.8703   -4.8658 C   0  0  0  0  0  0  0  0  0  0  0  0
  -11.6478   12.4508   -3.6291 C   0  0  0  0  0  0  0  0  0  0  0  0
  -11.0797   11.9010   -2.4816 C   0  0  0  0  0  0  0  0  0  0  0  0
  -11.2198   12.2235   -1.1505 C   0  0  0  0  0  0  0  0  0  0  0  0
  -11.9597   13.2192   -0.5152 C   0  0  0  0  0  0  0  0  0  0  0  0
  -11.8774   13.3021    0.8857 C   0  0  0  0  0  0  0  0  0  0  0  0
  -11.0640   12.4039    1.6106 C   0  0  0  0  0  0  0  0  0  0  0  0
  -10.3269   11.4080    0.9444 C   0  0  0  0  0  0  0  0  0  0  0  0
  -10.4322   11.3316   -0.4484 C   0  0  0  0  0  0  0  0  0  0  0  0
   -9.3233    8.4119   -0.0175 C   0  0  0  0  0  0  0  0  0  0  0  0
   -8.4232    7.3974    0.2976 C   0  0  0  0  0  0  0  0  0  0  0  0
   -8.5293    6.3265    1.1531 C   0  0  0  0  0  0  0  0  0  0  0  0
   -9.5881    5.8835    1.9446 C   0  0  0  0  0  0  0  0  0  0  0  0
   -9.4095    4.6977    2.6868 C   0  0  0  0  0  0  0  0  0  0  0  0
  -10.4878    4.1669    3.4735 N   0  0  0  0  0  0  0  0  0  0  0  0
  -11.0284    2.9248    3.3926 C   0  0  0  0  0  0  0  0  0  0  0  0
  -10.6915    1.8962    2.5076 C   0  0  0  0  0  0  0  0  0  0  0  0
  -11.4116    0.6908    2.5862 C   0  0  0  0  0  0  0  0  0  0  0  0
  -12.4490    0.5353    3.5312 C   0  0  0  0  0  0  0  0  0  0  0  0
  -12.7802    1.5840    4.4073 C   0  0  0  0  0  0  0  0  0  0  0  0
  -12.0518    2.7679    4.3065 C   0  0  0  0  0  0  0  0  0  0  0  0
  -12.1505    3.9618    4.9859 C   0  0  0  0  0  0  0  0  0  0  0  0
  -12.9956    4.3705    6.0157 C   0  0  0  0  0  0  0  0  0  0  0  0
  -12.8334    5.6741    6.5165 C   0  0  0  0  0  0  0  0  0  0  0  0
  -11.8404    6.5275    5.9873 C   0  0  0  0  0  0  0  0  0  0  0  0
  -11.0002    6.0899    4.9471 C   0  0  0  0  0  0  0  0  0  0  0  0
  -11.1851    4.7947    4.4532 C   0  0  0  0  0  0  0  0  0  0  0  0
   -8.1748    4.0102    2.6289 C   0  0  0  0  0  0  0  0  0  0  0  0
   -7.1263    4.4823    1.8247 C   0  0  0  0  0  0  0  0  0  0  0  0
   -7.3284    5.6497    1.0798 C   0  0  0  0  0  0  0  0  0  0  0  0
   -4.8974    5.6640   -1.6332 C   0  0  0  0  0  0  0  0  0  0  0  0
   -3.6686    5.1365   -2.0757 C   0  0  0  0  0  0  0  0  0  0  0  0
   -2.7566    4.6946   -1.1144 C   0  0  0  0  0  0  0  0  0  0  0  0
   -1.8307    2.5903   -3.3031 C   0  0  0  0  0  0  0  0  0  0  0  0
   -1.2554    1.9239   -4.3926 C   0  0  0  0  0  0  0  0  0  0  0  0
    2.0213    1.6663   -6.1617 N   0  0  0  0  0  0  0  0  0  0  0  0
    4.7895    2.1170   -6.2462 C   0  0  0  0  0  0  0  0  0  0  0  0
    6.1536    2.1379   -5.9973 C   0  0  0  0  0  0  0  0  0  0  0  0
    6.8013    4.4286    3.2862 C   0  0  0  0  0  0  0  0  0  0  0  0
    8.0889    4.1173    3.7420 C   0  0  0  0  0  0  0  0  0  0  0  0
    8.2439    3.7274    5.0840 C   0  0  0  0  0  0  0  0  0  0  0  0
    7.1246    3.6271    5.9364 C   0  0  0  0  0  0  0  0  0  0  0  0
    5.8356    3.9073    5.4546 C   0  0  0  0  0  0  0  0  0  0  0  0
    5.7097    4.3093    4.1244 C   0  0  0  0  0  0  0  0  0  0  0  0
    4.2281    5.1566    1.0724 C   0  0  0  0  0  0  0  0  0  0  0  0
    2.7502    5.3194    1.3528 C   0  0  0  0  0  0  0  0  0  0  0  0
    2.2828    4.4574    2.5509 C   0  0  0  0  0  0  0  0  0  0  0  0
    2.9941    4.1455    4.6656 H   0  0  0  0  0  0  0  0  0  0  0  0
    5.9697    3.4119   -0.2633 H   0  0  0  0  0  0  0  0  0  0  0  0
    7.4568    3.2655   -2.2308 H   0  0  0  0  0  0  0  0  0  0  0  0
    8.7507    6.1277    1.6635 H   0  0  0  0  0  0  0  0  0  0  0  0
   11.0947    7.0944    1.1100 H   0  0  0  0  0  0  0  0  0  0  0  0
   13.4354    9.1267   -2.1133 H   0  0  0  0  0  0  0  0  0  0  0  0
   14.7441   11.2007   -2.5401 H   0  0  0  0  0  0  0  0  0  0  0  0
   16.2238   12.1407   -0.7778 H   0  0  0  0  0  0  0  0  0  0  0  0
   16.4083   11.0138    1.4442 H   0  0  0  0  0  0  0  0  0  0  0  0
   16.1971    9.4641    3.5003 H   0  0  0  0  0  0  0  0  0  0  0  0
   15.6340    7.6628    5.1373 H   0  0  0  0  0  0  0  0  0  0  0  0
   14.0694    5.8383    4.5035 H   0  0  0  0  0  0  0  0  0  0  0  0
   13.0442    5.7875    2.2364 H   0  0  0  0  0  0  0  0  0  0  0  0
   14.0406    6.5799   -2.0294 H   0  0  0  0  0  0  0  0  0  0  0  0
   12.4653    5.1168   -3.2836 H   0  0  0  0  0  0  0  0  0  0  0  0
    9.4455    5.1799   -4.8350 H   0  0  0  0  0  0  0  0  0  0  0  0
    8.6366    3.5930   -6.5579 H   0  0  0  0  0  0  0  0  0  0  0  0
   10.3004    1.8879   -2.1792 H   0  0  0  0  0  0  0  0  0  0  0  0
    9.7494   -0.4866   -2.0214 H   0  0  0  0  0  0  0  0  0  0  0  0
    5.7538   -2.5703   -2.5268 H   0  0  0  0  0  0  0  0  0  0  0  0
    4.0023   -3.9429   -1.4568 H   0  0  0  0  0  0  0  0  0  0  0  0
    4.1432   -6.4184   -2.3215 H   0  0  0  0  0  0  0  0  0  0  0  0
    2.4146   -7.9854   -3.1867 H   0  0  0  0  0  0  0  0  0  0  0  0
    0.8329   -9.1004   -1.6286 H   0  0  0  0  0  0  0  0  0  0  0  0
    0.9736   -8.6720    0.8287 H   0  0  0  0  0  0  0  0  0  0  0  0
    1.5672   -7.8546    3.2048 H   0  0  0  0  0  0  0  0  0  0  0  0
    2.5184   -6.7182    5.2162 H   0  0  0  0  0  0  0  0  0  0  0  0
    4.3973   -5.1149    4.9750 H   0  0  0  0  0  0  0  0  0  0  0  0
    5.3396   -4.5984    2.7275 H   0  0  0  0  0  0  0  0  0  0  0  0
    6.9786   -5.8243    1.0667 H   0  0  0  0  0  0  0  0  0  0  0  0
    9.5042   -5.6484    1.4115 H   0  0  0  0  0  0  0  0  0  0  0  0
   13.1745   -6.1314   -1.0638 H   0  0  0  0  0  0  0  0  0  0  0  0
   15.1810   -7.5887   -1.2780 H   0  0  0  0  0  0  0  0  0  0  0  0
   16.3579   -8.4166    0.7487 H   0  0  0  0  0  0  0  0  0  0  0  0
   15.5340   -7.7972    3.0245 H   0  0  0  0  0  0  0  0  0  0  0  0
   14.2523   -6.8650    5.0646 H   0  0  0  0  0  0  0  0  0  0  0  0
   12.6801   -5.7107    6.6260 H   0  0  0  0  0  0  0  0  0  0  0  0
   10.8159   -4.3302    5.7328 H   0  0  0  0  0  0  0  0  0  0  0  0
   10.4923   -4.0858    3.2771 H   0  0  0  0  0  0  0  0  0  0  0  0
   12.8149   -3.6147   -0.5041 H   0  0  0  0  0  0  0  0  0  0  0  0
   11.2439   -2.4731   -2.0415 H   0  0  0  0  0  0  0  0  0  0  0  0
    7.3380   -3.2866   -4.2691 H   0  0  0  0  0  0  0  0  0  0  0  0
    7.1596   -1.6911   -6.1056 H   0  0  0  0  0  0  0  0  0  0  0  0
    7.1175   -0.4012   -8.0449 H   0  0  0  0  0  0  0  0  0  0  0  0
    4.6866   -0.5188   -8.4012 H   0  0  0  0  0  0  0  0  0  0  0  0
    2.4499   -2.9909   -7.5552 H   0  0  0  0  0  0  0  0  0  0  0  0
    1.7851   -5.3009   -7.0673 H   0  0  0  0  0  0  0  0  0  0  0  0
    1.7628   -4.6840   -4.5254 H   0  0  0  0  0  0  0  0  0  0  0  0
    1.5867   -3.8934   -2.2598 H   0  0  0  0  0  0  0  0  0  0  0  0
   -3.0368   -4.6701   -2.2559 H   0  0  0  0  0  0  0  0  0  0  0  0
   -4.4897   -2.8841   -3.0551 H   0  0  0  0  0  0  0  0  0  0  0  0
   -7.0271    3.0988   -3.1935 H   0  0  0  0  0  0  0  0  0  0  0  0
   -7.3427    3.3681   -0.7418 H   0  0  0  0  0  0  0  0  0  0  0  0
   -6.1400    1.8739    0.8486 H   0  0  0  0  0  0  0  0  0  0  0  0
   -4.5842    0.1280    0.0048 H   0  0  0  0  0  0  0  0  0  0  0  0
   -6.3418    2.3770   -5.4560 H   0  0  0  0  0  0  0  0  0  0  0  0
   -5.6909    1.0639   -7.4939 H   0  0  0  0  0  0  0  0  0  0  0  0
   -4.1344    1.7011   -6.8581 H   0  0  0  0  0  0  0  0  0  0  0  0
   -3.6339   -0.5950   -7.2155 H   0  0  0  0  0  0  0  0  0  0  0  0
   -5.2638   -1.1388   -6.7077 H   0  0  0  0  0  0  0  0  0  0  0  0
   -3.2668   -1.5472   -4.9275 H   0  0  0  0  0  0  0  0  0  0  0  0
   -2.0223    0.0798   -1.1111 H   0  0  0  0  0  0  0  0  0  0  0  0
    0.3580    0.0623   -0.2657 H   0  0  0  0  0  0  0  0  0  0  0  0
    2.3739   -0.8659   -2.3150 H   0  0  0  0  0  0  0  0  0  0  0  0
    4.0040   -0.3952   -4.1417 H   0  0  0  0  0  0  0  0  0  0  0  0
    6.2185    0.6009   -3.6139 H   0  0  0  0  0  0  0  0  0  0  0  0
    6.8332    1.1322   -1.2594 H   0  0  0  0  0  0  0  0  0  0  0  0
    6.9226    1.4667    1.3007 H   0  0  0  0  0  0  0  0  0  0  0  0
    6.5370    1.3727    3.7641 H   0  0  0  0  0  0  0  0  0  0  0  0
    4.3910    0.5224    4.6647 H   0  0  0  0  0  0  0  0  0  0  0  0
    2.6054   -0.3025    3.1112 H   0  0  0  0  0  0  0  0  0  0  0  0
    3.2917   -2.8289    1.0281 H   0  0  0  0  0  0  0  0  0  0  0  0
    1.7142   -4.6547    0.4708 H   0  0  0  0  0  0  0  0  0  0  0  0
   -1.7928   -6.4827   -1.5465 H   0  0  0  0  0  0  0  0  0  0  0  0
   -3.4899   -7.3549   -2.8610 H   0  0  0  0  0  0  0  0  0  0  0  0
   -5.0978   -4.5935   -5.7130 H   0  0  0  0  0  0  0  0  0  0  0  0
   -6.2278   -2.5141   -5.0436 H   0  0  0  0  0  0  0  0  0  0  0  0
   -8.4568   -1.8502   -5.8232 H   0  0  0  0  0  0  0  0  0  0  0  0
   -9.3874    0.2737   -6.7187 H   0  0  0  0  0  0  0  0  0  0  0  0
  -10.0153    2.1221   -5.1805 H   0  0  0  0  0  0  0  0  0  0  0  0
   -9.7166    1.8634   -2.7142 H   0  0  0  0  0  0  0  0  0  0  0  0
   -9.1872    1.0622   -0.3305 H   0  0  0  0  0  0  0  0  0  0  0  0
   -8.3418   -0.1263    1.7019 H   0  0  0  0  0  0  0  0  0  0  0  0
   -7.2622   -2.3529    1.4823 H   0  0  0  0  0  0  0  0  0  0  0  0
   -7.0458   -3.4383   -0.7360 H   0  0  0  0  0  0  0  0  0  0  0  0
   -8.6337   -4.6938   -2.1910 H   0  0  0  0  0  0  0  0  0  0  0  0
   -8.5724   -6.9462   -1.1373 H   0  0  0  0  0  0  0  0  0  0  0  0
   -5.1802   -9.0629    0.6287 H   0  0  0  0  0  0  0  0  0  0  0  0
   -4.2592   -9.4822    2.9015 H   0  0  0  0  0  0  0  0  0  0  0  0
   -5.7719  -10.0688    4.7844 H   0  0  0  0  0  0  0  0  0  0  0  0
   -8.2366  -10.2377    4.4137 H   0  0  0  0  0  0  0  0  0  0  0  0
  -10.6441  -10.2119    3.4714 H   0  0  0  0  0  0  0  0  0  0  0  0
  -12.7016   -9.9960    2.0702 H   0  0  0  0  0  0  0  0  0  0  0  0
  -12.5211   -9.4120   -0.3394 H   0  0  0  0  0  0  0  0  0  0  0  0
  -10.2892   -9.0358   -1.3821 H   0  0  0  0  0  0  0  0  0  0  0  0
   -6.0942  -10.4820   -1.4153 H   0  0  0  0  0  0  0  0  0  0  0  0
   -5.0070   -9.5728   -3.4543 H   0  0  0  0  0  0  0  0  0  0  0  0
   -4.7271   -6.8608   -6.9622 H   0  0  0  0  0  0  0  0  0  0  0  0
   -2.3925   -6.3384   -7.6077 H   0  0  0  0  0  0  0  0  0  0  0  0
   -2.1637   -3.9301   -6.0267 H   0  0  0  0  0  0  0  0  0  0  0  0
   -1.5284   -1.6539   -6.5667 H   0  0  0  0  0  0  0  0  0  0  0  0
    1.8403    3.3557   -4.2729 H   0  0  0  0  0  0  0  0  0  0  0  0
    0.8290    4.4883   -2.3579 H   0  0  0  0  0  0  0  0  0  0  0  0
    0.5225    2.3914   -0.5006 H   0  0  0  0  0  0  0  0  0  0  0  0
    0.4972    1.3453    1.7479 H   0  0  0  0  0  0  0  0  0  0  0  0
   -3.8910    1.6056    1.9885 H   0  0  0  0  0  0  0  0  0  0  0  0
   -5.7335    0.0123    2.3838 H   0  0  0  0  0  0  0  0  0  0  0  0
   -9.9066   -3.5880    4.5609 H   0  0  0  0  0  0  0  0  0  0  0  0
  -10.8919   -1.3770    5.1633 H   0  0  0  0  0  0  0  0  0  0  0  0
   -9.4522    0.6456    5.2929 H   0  0  0  0  0  0  0  0  0  0  0  0
   -7.0054    0.4783    4.8534 H   0  0  0  0  0  0  0  0  0  0  0  0
   -8.4083   -5.4592    3.9079 H   0  0  0  0  0  0  0  0  0  0  0  0
   -5.9746   -6.5503    4.4379 H   0  0  0  0  0  0  0  0  0  0  0  0
   -6.6617   -6.8633    2.8069 H   0  0  0  0  0  0  0  0  0  0  0  0
   -5.2129   -5.3024    1.7432 H   0  0  0  0  0  0  0  0  0  0  0  0
   -4.1469   -6.0178    3.0001 H   0  0  0  0  0  0  0  0  0  0  0  0
   -3.8280   -3.5343    3.2184 H   0  0  0  0  0  0  0  0  0  0  0  0
   -3.4617   -1.8901    5.5352 H   0  0  0  0  0  0  0  0  0  0  0  0
   -1.1168   -1.6154    6.5706 H   0  0  0  0  0  0  0  0  0  0  0  0
    3.0498   -1.5197    5.1495 H   0  0  0  0  0  0  0  0  0  0  0  0
    5.2460   -2.6785    5.3181 H   0  0  0  0  0  0  0  0  0  0  0  0
    5.9993   -3.6279    7.4899 H   0  0  0  0  0  0  0  0  0  0  0  0
    4.5657   -3.4058    9.5254 H   0  0  0  0  0  0  0  0  0  0  0  0
    2.7101   -2.8743   11.2502 H   0  0  0  0  0  0  0  0  0  0  0  0
    0.6793   -2.0695   12.4630 H   0  0  0  0  0  0  0  0  0  0  0  0
   -1.0668   -0.7727   11.2598 H   0  0  0  0  0  0  0  0  0  0  0  0
   -0.8153   -0.2666    8.8349 H   0  0  0  0  0  0  0  0  0  0  0  0
    2.3233    0.9454    5.9555 H   0  0  0  0  0  0  0  0  0  0  0  0
    1.0950    2.1969    4.1971 H   0  0  0  0  0  0  0  0  0  0  0  0
   -2.9141    3.7517    2.8533 H   0  0  0  0  0  0  0  0  0  0  0  0
   -4.4394    5.3871    1.7582 H   0  0  0  0  0  0  0  0  0  0  0  0
   -5.7345    8.2827   -1.5895 H   0  0  0  0  0  0  0  0  0  0  0  0
   -7.2921   10.1111   -2.1907 H   0  0  0  0  0  0  0  0  0  0  0  0
   -9.2235    9.3708   -3.8028 H   0  0  0  0  0  0  0  0  0  0  0  0
  -10.2013   10.3218   -5.8851 H   0  0  0  0  0  0  0  0  0  0  0  0
  -11.7405   12.2706   -5.7774 H   0  0  0  0  0  0  0  0  0  0  0  0
  -12.3257   13.2926   -3.5741 H   0  0  0  0  0  0  0  0  0  0  0  0
  -12.5745   13.9096   -1.0779 H   0  0  0  0  0  0  0  0  0  0  0  0
  -12.4375   14.0640    1.4120 H   0  0  0  0  0  0  0  0  0  0  0  0
  -11.0038   12.4847    2.6881 H   0  0  0  0  0  0  0  0  0  0  0  0
   -9.6936   10.7317    1.5026 H   0  0  0  0  0  0  0  0  0  0  0  0
  -10.3096    8.4380    0.4280 H   0  0  0  0  0  0  0  0  0  0  0  0
  -10.5303    6.4165    1.9621 H   0  0  0  0  0  0  0  0  0  0  0  0
   -9.9076    2.0186    1.7746 H   0  0  0  0  0  0  0  0  0  0  0  0
  -11.1689   -0.1238    1.9163 H   0  0  0  0  0  0  0  0  0  0  0  0
  -12.9943   -0.3980    3.5809 H   0  0  0  0  0  0  0  0  0  0  0  0
  -13.5791    1.4740    5.1289 H   0  0  0  0  0  0  0  0  0  0  0  0
  -13.7494    3.7085    6.4218 H   0  0  0  0  0  0  0  0  0  0  0  0
  -13.4714    6.0244    7.3174 H   0  0  0  0  0  0  0  0  0  0  0  0
  -11.7221    7.5259    6.3876 H   0  0  0  0  0  0  0  0  0  0  0  0
  -10.2323    6.7418    4.5530 H   0  0  0  0  0  0  0  0  0  0  0  0
   -8.0319    3.1037    3.2040 H   0  0  0  0  0  0  0  0  0  0  0  0
   -6.2000    3.9347    1.7901 H   0  0  0  0  0  0  0  0  0  0  0  0
   -5.6347    5.9562   -2.3693 H   0  0  0  0  0  0  0  0  0  0  0  0
   -3.4615    5.0391   -3.1333 H   0  0  0  0  0  0  0  0  0  0  0  0
   -2.8410    2.3522   -3.0051 H   0  0  0  0  0  0  0  0  0  0  0  0
   -1.8393    1.1868   -4.9264 H   0  0  0  0  0  0  0  0  0  0  0  0
    4.1672    2.8072   -5.6906 H   0  0  0  0  0  0  0  0  0  0  0  0
    6.5088    2.8086   -5.2271 H   0  0  0  0  0  0  0  0  0  0  0  0
    8.9494    4.1496    3.0895 H   0  0  0  0  0  0  0  0  0  0  0  0
    9.2289    3.4862    5.4618 H   0  0  0  0  0  0  0  0  0  0  0  0
    7.2574    3.3118    6.9630 H   0  0  0  0  0  0  0  0  0  0  0  0
    4.9703    3.7946    6.0945 H   0  0  0  0  0  0  0  0  0  0  0  0
    4.6115    5.4395    0.1015 H   0  0  0  0  0  0  0  0  0  0  0  0
    2.1679    5.0429    0.4478 H   0  0  0  0  0  0  0  0  0  0  0  0
    2.5537    6.3897    1.5767 H   0  0  0  0  0  0  0  0  0  0  0  0
    2.1413    3.4141    2.2007 H   0  0  0  0  0  0  0  0  0  0  0  0
    1.3109    4.8342    2.9343 H   0  0  0  0  0  0  0  0  0  0  0  0
  1  2  2  0
  1297  1  0
  1298  1  0
  2  3  1  0
  2294  1  0
  3  4  1  0
  3295  2  0
  4  5  1  0
  4289  1  0
  5  6  2  0
  5 10  1  0
  6  7  1  0
  6299  1  0
  7  8  2  0
  7300  1  0
  8  9  1  0
  8 30  1  0
  9 10  2  0
  9 11  1  0
 10301  1  0
 11 12  2  0
 11 29  1  0
 12 13  1  0
 12302  1  0
 13 14  1  0
 13 27  2  0
 14 15  1  0
 14 26  1  0
 15 16  2  0
 15 20  1  0
 16 17  1  0
 16303  1  0
 17 18  2  0
 17304  1  0
 18 19  1  0
 18305  1  0
 19 20  2  0
 19306  1  0
 20 21  1  0
 21 22  1  0
 21 26  2  0
 22 23  2  0
 22307  1  0
 23 24  1  0
 23308  1  0
 24 25  2  0
 24309  1  0
 25 26  1  0
 25310  1  0
 27 28  1  0
 27311  1  0
 28 29  2  0
 28312  1  0
 29 30  1  0
 30 31  1  0
 31 32  2  0
 31 36  1  0
 32 33  1  0
 32313  1  0
 33 34  2  0
 33314  1  0
 34 35  1  0
 34 82  1  0
 35 36  2  0
 35 37  1  0
 36315  1  0
 37 38  2  0
 37 81  1  0
 38 39  1  0
 38316  1  0
 39 40  1  0
 39 79  2  0
 40 41  1  0
 40 78  1  0
 41 42  2  0
 41 59  1  0
 42 43  1  0
 42317  1  0
 43 44  2  0
 43318  1  0
 44 45  1  0
 44 58  1  0
 45 46  1  0
 45 57  1  0
 46 47  2  0
 46 51  1  0
 47 48  1  0
 47319  1  0
 48 49  2  0
 48320  1  0
 49 50  1  0
 49321  1  0
 50 51  2  0
 50322  1  0
 51 52  1  0
 52 53  1  0
 52 57  2  0
 53 54  2  0
 53323  1  0
 54 55  1  0
 54324  1  0
 55 56  2  0
 55325  1  0
 56 57  1  0
 56326  1  0
 58 59  2  0
 58327  1  0
 59 60  1  0
 60 61  1  0
 60 78  2  0
 61 62  2  0
 61328  1  0
 62 63  1  0
 62 76  1  0
 63 64  1  0
 63 75  1  0
 64 65  2  0
 64 69  1  0
 65 66  1  0
 65329  1  0
 66 67  2  0
 66330  1  0
 67 68  1  0
 67331  1  0
 68 69  2  0
 68332  1  0
 69 70  1  0
 70 71  1  0
 70 75  2  0
 71 72  2  0
 71333  1  0
 72 73  1  0
 72334  1  0
 73 74  2  0
 73335  1  0
 74 75  1  0
 74336  1  0
 76 77  2  0
 76337  1  0
 77 78  1  0
 77338  1  0
 79 80  1  0
 79339  1  0
 80 81  2  0
 80340  1  0
 81 82  1  0
 82 83  1  0
 83 84  2  0
 83288  1  0
 84 85  1  0
 84341  1  0
 85 86  2  0
 85342  1  0
 86 87  1  0
 86287  1  0
 87 88  2  0
 87286  1  0
 88 89  1  0
 89 90  1  0
 89187  2  0
 90 91  2  0
 90186  1  0
 91 92  1  0
 91343  1  0
 92 93  2  0
 92344  1  0
 93 94  1  0
 93185  1  0
 94 95  1  0
 94184  1  0
 95 96  2  0
 95139  1  0
 96 97  1  0
 96345  1  0
 97 98  2  0
 97346  1  0
 98 99  1  0
 98138  1  0
 99100  1  0
 99137  1  0
100101  2  0
100118  1  0
101102  1  0
101347  1  0
102103  2  0
102348  1  0
103104  1  0
103117  1  0
104105  1  0
104112  1  0
105106  1  0
105116  2  0
106107  1  0
106113  2  0
107108  2  0
107112  1  0
108109  1  0
108349  1  0
109110  2  0
109350  1  0
110111  1  0
110351  1  0
111112  2  0
111352  1  0
113114  1  0
113353  1  0
114115  1  0
114354  1  0
114355  1  0
115116  1  0
115356  1  0
115357  1  0
116358  1  0
117118  2  0
117359  1  0
118119  1  0
119120  1  0
119137  2  0
120121  2  0
120360  1  0
121122  1  0
121135  1  0
122123  1  0
122134  1  0
123124  2  0
123128  1  0
124125  1  0
124361  1  0
125126  2  0
125362  1  0
126127  1  0
126363  1  0
127128  2  0
127364  1  0
128129  1  0
129130  1  0
129134  2  0
130131  2  0
130365  1  0
131132  1  0
131366  1  0
132133  2  0
132367  1  0
133134  1  0
133368  1  0
135136  2  0
135369  1  0
136137  1  0
136370  1  0
138139  2  0
138371  1  0
139140  1  0
140141  1  0
140184  2  0
141142  2  0
141372  1  0
142143  1  0
142182  1  0
143144  1  0
143181  1  0
144145  2  0
144162  1  0
145146  1  0
145373  1  0
146147  2  0
146374  1  0
147148  1  0
147161  1  0
148149  1  0
148160  1  0
149150  2  0
149154  1  0
150151  1  0
150375  1  0
151152  2  0
151376  1  0
152153  1  0
152377  1  0
153154  2  0
153378  1  0
154155  1  0
155156  1  0
155160  2  0
156157  2  0
156379  1  0
157158  1  0
157380  1  0
158159  2  0
158381  1  0
159160  1  0
159382  1  0
161162  2  0
161383  1  0
162163  1  0
163164  1  0
163181  2  0
164165  2  0
164384  1  0
165166  1  0
165179  1  0
166167  1  0
166178  1  0
167168  2  0
167172  1  0
168169  1  0
168385  1  0
169170  2  0
169386  1  0
170171  1  0
170387  1  0
171172  2  0
171388  1  0
172173  1  0
173174  1  0
173178  2  0
174175  2  0
174389  1  0
175176  1  0
175390  1  0
176177  2  0
176391  1  0
177178  1  0
177392  1  0
179180  2  0
179393  1  0
180181  1  0
180394  1  0
182183  2  0
182395  1  0
183184  1  0
183396  1  0
185186  2  0
185397  1  0
186398  1  0
187188  1  0
188189  1  0
188286  2  0
189190  2  0
189285  1  0
190191  1  0
190399  1  0
191192  2  0
191400  1  0
192193  1  0
192284  1  0
193194  1  0
193283  1  0
194195  2  0
194238  1  0
195196  1  0
195401  1  0
196197  2  0
196402  1  0
197198  1  0
197237  1  0
198199  1  0
198236  1  0
199200  2  0
199217  1  0
200201  1  0
200403  1  0
201202  2  0
201404  1  0
202203  1  0
202216  1  0
203204  1  0
203211  1  0
204205  1  0
204215  2  0
205206  1  0
205212  2  0
206207  2  0
206211  1  0
207208  1  0
207405  1  0
208209  2  0
208406  1  0
209210  1  0
209407  1  0
210211  2  0
210408  1  0
212213  1  0
212409  1  0
213214  1  0
213410  1  0
213411  1  0
214215  1  0
214412  1  0
214413  1  0
215414  1  0
216217  2  0
216415  1  0
217218  1  0
218219  1  0
218236  2  0
219220  2  0
219416  1  0
220221  1  0
220234  1  0
221222  1  0
221233  1  0
222223  2  0
222227  1  0
223224  1  0
223417  1  0
224225  2  0
224418  1  0
225226  1  0
225419  1  0
226227  2  0
226420  1  0
227228  1  0
228229  1  0
228233  2  0
229230  2  0
229421  1  0
230231  1  0
230422  1  0
231232  2  0
231423  1  0
232233  1  0
232424  1  0
234235  2  0
234425  1  0
235236  1  0
235426  1  0
237238  2  0
237427  1  0
238239  1  0
239240  1  0
239283  2  0
240241  2  0
240428  1  0
241242  1  0
241281  1  0
242243  1  0
242280  1  0
243244  2  0
243261  1  0
244245  1  0
244429  1  0
245246  2  0
245430  1  0
246247  1  0
246260  1  0
247248  1  0
247259  1  0
248249  2  0
248253  1  0
249250  1  0
249431  1  0
250251  2  0
250432  1  0
251252  1  0
251433  1  0
252253  2  0
252434  1  0
253254  1  0
254255  1  0
254259  2  0
255256  2  0
255435  1  0
256257  1  0
256436  1  0
257258  2  0
257437  1  0
258259  1  0
258438  1  0
260261  2  0
260439  1  0
261262  1  0
262263  1  0
262280  2  0
263264  2  0
263440  1  0
264265  1  0
264278  1  0
265266  1  0
265277  1  0
266267  2  0
266271  1  0
267268  1  0
267441  1  0
268269  2  0
268442  1  0
269270  1  0
269443  1  0
270271  2  0
270444  1  0
271272  1  0
272273  1  0
272277  2  0
273274  2  0
273445  1  0
274275  1  0
274446  1  0
275276  2  0
275447  1  0
276277  1  0
276448  1  0
278279  2  0
278449  1  0
279280  1  0
279450  1  0
281282  2  0
281451  1  0
282283  1  0
282452  1  0
284285  2  0
284453  1  0
285454  1  0
287288  2  0
287455  1  0
288456  1  0
289290  1  0
289294  2  0
290291  2  0
290457  1  0
291292  1  0
291458  1  0
292293  2  0
292459  1  0
293294  1  0
293460  1  0
295296  1  0
295461  1  0
296297  1  0
296462  1  0
296463  1  0
297464  1  0
297465  1  0
M  END

