
     RDKit          3D

 42 42  0  0  0  0  0  0  0  0999 V2000
    6.7945   -4.1504   -0.1926 C   0  0  0  0  0  0  0  0  0  0  0  0
    6.2851   -2.8521   -0.0511 O   0  0  0  0  0  0  0  0  0  0  0  0
    6.8010   -2.1543    1.0518 C   0  0  0  0  0  0  0  0  0  0  0  0
    6.1597   -0.7773    1.0788 C   0  0  0  0  0  0  0  0  0  0  0  0
    6.6710   -0.0743    2.1834 O   0  0  0  0  0  0  0  0  0  0  0  0
    6.1468    1.2247    2.3407 C   0  0  0  0  0  0  0  0  0  0  0  0
    6.7719    1.8748    3.5654 C   0  0  0  0  0  0  0  0  0  0  0  0
    8.2844    2.0093    3.4657 C   0  0  0  0  0  0  0  0  0  0  0  0
    8.7655    2.6296    4.6392 O   0  0  0  0  0  0  0  0  0  0  0  0
   10.1724    2.7317    4.6910 C   0  0  0  0  0  0  0  0  0  0  0  0
   10.5993    3.3990    5.9772 C   0  0  0  0  0  0  0  0  0  0  0  0
   11.3073    2.6641    6.9381 C   0  0  0  0  0  0  0  0  0  0  0  0
   11.7244    3.2419    8.1357 C   0  0  0  0  0  0  0  0  0  0  0  0
   11.4106    4.5791    8.4047 C   0  0  0  0  0  0  0  0  0  0  0  0
   11.8770    5.1655    9.7081 C   0  0  0  0  0  0  0  0  0  0  0  0
   12.7538    4.6817   10.3742 O   0  0  0  0  0  0  0  0  0  0  0  0
   11.2482    6.2915   10.1209 O   0  0  0  0  0  0  0  0  0  0  0  0
   10.7103    5.3209    7.4397 C   0  0  0  0  0  0  0  0  0  0  0  0
   10.2989    4.7589    6.2250 C   0  0  0  0  0  0  0  0  0  0  0  0
    9.5648    5.5962    5.2071 C   0  0  0  0  0  0  0  0  0  0  0  0
    6.3264   -4.6017   -1.0797 H   0  0  0  0  0  0  0  0  0  0  0  0
    6.5662   -4.7852    0.6880 H   0  0  0  0  0  0  0  0  0  0  0  0
    7.8947   -4.1526   -0.3349 H   0  0  0  0  0  0  0  0  0  0  0  0
    7.9041   -2.0474    0.9856 H   0  0  0  0  0  0  0  0  0  0  0  0
    6.5837   -2.6804    2.0049 H   0  0  0  0  0  0  0  0  0  0  0  0
    5.0578   -0.8865    1.1449 H   0  0  0  0  0  0  0  0  0  0  0  0
    6.3770   -0.2503    0.1271 H   0  0  0  0  0  0  0  0  0  0  0  0
    5.0439    1.1858    2.4558 H   0  0  0  0  0  0  0  0  0  0  0  0
    6.3502    1.8323    1.4322 H   0  0  0  0  0  0  0  0  0  0  0  0
    6.5263    1.2828    4.4623 H   0  0  0  0  0  0  0  0  0  0  0  0
    6.3253    2.8735    3.7056 H   0  0  0  0  0  0  0  0  0  0  0  0
    8.5610    2.6069    2.5696 H   0  0  0  0  0  0  0  0  0  0  0  0
    8.7409    1.0089    3.3376 H   0  0  0  0  0  0  0  0  0  0  0  0
   10.5449    3.3111    3.8189 H   0  0  0  0  0  0  0  0  0  0  0  0
   10.6341    1.7268    4.6212 H   0  0  0  0  0  0  0  0  0  0  0  0
   11.5369    1.6137    6.7394 H   0  0  0  0  0  0  0  0  0  0  0  0
   12.2864    2.6733    8.8784 H   0  0  0  0  0  0  0  0  0  0  0  0
   10.4833    6.4737    9.5575 H   0  0  0  0  0  0  0  0  0  0  0  0
   10.4994    6.3825    7.6062 H   0  0  0  0  0  0  0  0  0  0  0  0
    9.3834    6.6147    5.5797 H   0  0  0  0  0  0  0  0  0  0  0  0
    8.6016    5.1345    4.9461 H   0  0  0  0  0  0  0  0  0  0  0  0
   10.1412    5.6811    4.2697 H   0  0  0  0  0  0  0  0  0  0  0  0
  1  2  1  0
  1 21  1  0
  1 22  1  0
  1 23  1  0
  2  3  1  0
  3  4  1  0
  3 24  1  0
  3 25  1  0
  4  5  1  0
  4 26  1  0
  4 27  1  0
  5  6  1  0
  6  7  1  0
  6 28  1  0
  6 29  1  0
  7  8  1  0
  7 30  1  0
  7 31  1  0
  8  9  1  0
  8 32  1  0
  8 33  1  0
  9 10  1  0
 10 11  1  0
 10 34  1  0
 10 35  1  0
 11 12  2  0
 11 19  1  0
 12 13  1  0
 12 36  1  0
 13 14  2  0
 13 37  1  0
 14 15  1  0
 14 18  1  0
 15 16  2  0
 15 17  1  0
 17 38  1  0
 18 19  2  0
 18 39  1  0
 19 20  1  0
 20 40  1  0
 20 41  1  0
 20 42  1  0
M  END

