
     RDKit          3D

 41 42  0  0  0  0  0  0  0  0999 V2000
    4.6377    2.3422   -3.9308 C   0  0  0  0  0  0  0  0  0  0  0  0
    4.0872    1.1190   -3.2202 C   0  0  0  0  0  0  0  0  0  0  0  0
    4.8991    0.8465   -2.0968 O   0  0  0  0  0  0  0  0  0  0  0  0
    4.4747   -0.2104   -1.2619 C   0  0  1  0  0  0  0  0  0  0  0  0
    3.3783   -0.1270   -1.0941 H   0  0  0  0  0  0  0  0  0  0  0  0
    4.7725   -1.6018   -1.8374 C   0  0  0  0  0  0  0  0  0  0  0  0
    4.4723   -2.6784   -0.7944 C   0  0  0  0  0  0  0  0  0  0  0  0
    5.1797   -2.4579    0.4144 O   0  0  0  0  0  0  0  0  0  0  0  0
    4.9021   -1.2180    1.0243 C   0  0  2  0  0  0  0  0  0  0  0  0
    5.1963   -0.0534    0.0767 C   0  0  0  0  0  0  0  0  0  0  0  0
    5.5832   -1.1240    2.4064 C   0  0  0  0  0  0  0  0  0  0  0  0
    4.2751   -0.7530    2.9972 N   0  0  0  0  0  0  0  0  0  0  0  0
    3.7983   -1.3374    4.5172 S   0  0  1  0  0  0  0  0  0  0  0  0
    2.4191   -1.8256    4.3733 O   0  0  0  0  0  0  0  0  0  0  0  0
    4.8624   -2.2089    5.0351 O   0  0  0  0  0  0  0  0  0  0  0  0
    3.7690    0.1692    5.5600 C   0  0  1  0  0  0  0  0  0  0  0  0
    2.7358    1.1598    5.0352 C   0  0  0  0  0  0  0  0  0  0  0  0
    3.5346   -0.2639    7.0077 C   0  0  0  0  0  0  0  0  0  0  0  0
    3.5307   -1.1383    1.7757 C   0  0  0  0  0  0  0  0  0  0  0  0
    4.0236    2.5882   -4.8111 H   0  0  0  0  0  0  0  0  0  0  0  0
    5.6708    2.1615   -4.2658 H   0  0  0  0  0  0  0  0  0  0  0  0
    4.6456    3.2110   -3.2545 H   0  0  0  0  0  0  0  0  0  0  0  0
    4.0641    0.2556   -3.9152 H   0  0  0  0  0  0  0  0  0  0  0  0
    3.0392    1.2962   -2.8979 H   0  0  0  0  0  0  0  0  0  0  0  0
    5.8386   -1.6410   -2.1181 H   0  0  0  0  0  0  0  0  0  0  0  0
    4.1803   -1.7972   -2.7464 H   0  0  0  0  0  0  0  0  0  0  0  0
    4.7766   -3.6733   -1.1513 H   0  0  0  0  0  0  0  0  0  0  0  0
    3.3811   -2.7207   -0.5953 H   0  0  0  0  0  0  0  0  0  0  0  0
    6.2810   -0.0231   -0.1213 H   0  0  0  0  0  0  0  0  0  0  0  0
    4.9196    0.9032    0.5463 H   0  0  0  0  0  0  0  0  0  0  0  0
    6.3664   -0.3590    2.5253 H   0  0  0  0  0  0  0  0  0  0  0  0
    5.9534   -2.1037    2.7441 H   0  0  0  0  0  0  0  0  0  0  0  0
    4.7902    0.5677    5.4420 H   0  0  0  0  0  0  0  0  0  0  0  0
    1.7258    0.7258    5.0819 H   0  0  0  0  0  0  0  0  0  0  0  0
    2.9480    1.4451    3.9947 H   0  0  0  0  0  0  0  0  0  0  0  0
    2.7521    2.0725    5.6520 H   0  0  0  0  0  0  0  0  0  0  0  0
    2.5445   -0.7332    7.1163 H   0  0  0  0  0  0  0  0  0  0  0  0
    3.5733    0.6175    7.6669 H   0  0  0  0  0  0  0  0  0  0  0  0
    4.2991   -0.9820    7.3355 H   0  0  0  0  0  0  0  0  0  0  0  0
    2.8020   -0.3823    1.4442 H   0  0  0  0  0  0  0  0  0  0  0  0
    3.0369   -2.1189    1.8563 H   0  0  0  0  0  0  0  0  0  0  0  0
  1  2  1  0
  1 20  1  0
  1 21  1  0
  1 22  1  0
  2  3  1  0
  2 23  1  0
  2 24  1  0
  3  4  1  0
  4  5  1  1
  4  6  1  0
  4 10  1  0
  6  7  1  0
  6 25  1  0
  6 26  1  0
  7  8  1  0
  7 27  1  0
  7 28  1  0
  9  8  1  6
  9 10  1  0
  9 11  1  0
  9 19  1  0
 10 29  1  0
 10 30  1  0
 11 12  1  0
 11 31  1  0
 11 32  1  0
 13 12  1  6
 12 19  1  0
 13 14  2  0
 13 15  2  0
 13 16  1  0
 16 17  1  0
 16 18  1  0
 16 33  1  1
 17 34  1  0
 17 35  1  0
 17 36  1  0
 18 37  1  0
 18 38  1  0
 18 39  1  0
 19 40  1  0
 19 41  1  0
M  END

