
     RDKit          3D

 31 32  0  0  0  0  0  0  0  0999 V2000
    1.0308    0.4852    0.0176 N   0  0  0  0  0  0  0  0  0  0  0  0
    2.4132    0.2108    0.0622 N   0  0  0  0  0  0  0  0  0  0  0  0
    2.9214    0.1553    1.4348 C   0  0  1  0  0  0  0  0  0  0  0  0
    2.2738   -1.0266    2.2031 C   0  0  0  0  0  0  0  0  0  0  0  0
    2.6299   -2.4044    1.7311 C   0  0  0  0  0  0  0  0  0  0  0  0
    3.2692   -3.2799    2.4555 N   0  0  0  0  0  0  0  0  0  0  0  0
    3.4309   -4.4694    1.7944 C   0  0  0  0  0  0  0  0  0  0  0  0
    2.9024   -4.5263    0.5324 C   0  0  0  0  0  0  0  0  0  0  0  0
    2.1741   -3.0066    0.1388 S   0  0  0  0  0  0  0  0  0  0  0  0
    4.4396    0.0887    1.4195 C   0  0  0  0  0  0  0  0  0  0  0  0
    5.1037   -0.5588    0.3647 C   0  0  0  0  0  0  0  0  0  0  0  0
    6.4966   -0.6533    0.3211 C   0  0  0  0  0  0  0  0  0  0  0  0
    7.1626   -1.3987   -0.8090 C   0  0  1  0  0  0  0  0  0  0  0  0
    6.4500   -1.3227   -1.9472 F   0  0  0  0  0  0  0  0  0  0  0  0
    8.3912   -0.9143   -1.0681 F   0  0  0  0  0  0  0  0  0  0  0  0
    7.3100   -2.7061   -0.5252 F   0  0  0  0  0  0  0  0  0  0  0  0
    7.2681   -0.0990    1.3465 C   0  0  0  0  0  0  0  0  0  0  0  0
    6.6358    0.5428    2.4095 C   0  0  0  0  0  0  0  0  0  0  0  0
    5.2407    0.6315    2.4415 C   0  0  0  0  0  0  0  0  0  0  0  0
    4.4653    1.5279    3.9450 Br  0  0  0  0  0  0  0  0  0  0  0  0
    0.6333    0.0828   -0.8291 H   0  0  0  0  0  0  0  0  0  0  0  0
    0.8248    1.4887    0.0282 H   0  0  0  0  0  0  0  0  0  0  0  0
    2.9658    0.8789   -0.4803 H   0  0  0  0  0  0  0  0  0  0  0  0
    2.6335    1.0640    1.9990 H   0  0  0  0  0  0  0  0  0  0  0  0
    1.1858   -0.8715    2.1346 H   0  0  0  0  0  0  0  0  0  0  0  0
    2.5646   -0.9713    3.2612 H   0  0  0  0  0  0  0  0  0  0  0  0
    3.9564   -5.2910    2.2852 H   0  0  0  0  0  0  0  0  0  0  0  0
    2.9183   -5.3550   -0.1735 H   0  0  0  0  0  0  0  0  0  0  0  0
    4.5040   -0.9924   -0.4357 H   0  0  0  0  0  0  0  0  0  0  0  0
    8.3572   -0.1604    1.3147 H   0  0  0  0  0  0  0  0  0  0  0  0
    7.2237    0.9812    3.2168 H   0  0  0  0  0  0  0  0  0  0  0  0
  1  2  1  0
  1 21  1  0
  1 22  1  0
  2  3  1  0
  2 23  1  0
  3  4  1  0
  3 10  1  0
  3 24  1  1
  4  5  1  0
  4 25  1  0
  4 26  1  0
  5  6  2  0
  5  9  1  0
  6  7  1  0
  7  8  2  0
  7 27  1  0
  8  9  1  0
  8 28  1  0
 10 11  2  0
 10 19  1  0
 11 12  1  0
 11 29  1  0
 12 13  1  0
 12 17  2  0
 13 14  1  6
 13 15  1  0
 13 16  1  0
 17 18  1  0
 17 30  1  0
 18 19  2  0
 18 31  1  0
 19 20  1  0
M  END

