
     RDKit          3D

 22 23  0  0  0  0  0  0  0  0999 V2000
    1.0061   -0.1120   -0.0710 C   0  0  0  0  0  0  0  0  0  0  0  0
    2.5028   -0.0409    0.0485 C   0  0  0  0  0  0  0  0  0  0  0  0
    3.1976   -1.1087   -0.1147 N   0  0  0  0  0  0  0  0  0  0  0  0
    4.5794   -0.9810   -0.0055 C   0  0  0  0  0  0  0  0  0  0  0  0
    5.4011   -2.0276    0.0693 N   0  0  0  0  0  0  0  0  0  0  0  0
    6.6288   -1.4905    0.1364 N   0  0  0  0  0  0  0  0  0  0  0  0
    7.7902   -2.3489    0.2398 C   0  0  0  0  0  0  0  0  0  0  0  0
    6.6122   -0.1218    0.0961 C   0  0  0  0  0  0  0  0  0  0  0  0
    5.2864    0.2535    0.0095 C   0  0  0  0  0  0  0  0  0  0  0  0
    4.5264    1.5384   -0.1189 C   0  0  0  0  0  0  0  0  0  0  0  0
    3.1062    1.3107    0.4352 C   0  0  0  0  0  0  0  0  0  0  0  0
    0.6914   -1.1498   -0.2420 H   0  0  0  0  0  0  0  0  0  0  0  0
    0.6487    0.5180   -0.9049 H   0  0  0  0  0  0  0  0  0  0  0  0
    0.5207    0.2728    0.8436 H   0  0  0  0  0  0  0  0  0  0  0  0
    7.4296   -3.3837    0.2728 H   0  0  0  0  0  0  0  0  0  0  0  0
    8.3614   -2.1352    1.1576 H   0  0  0  0  0  0  0  0  0  0  0  0
    8.4553   -2.2258   -0.6304 H   0  0  0  0  0  0  0  0  0  0  0  0
    7.5339    0.4572    0.1342 H   0  0  0  0  0  0  0  0  0  0  0  0
    4.4642    1.8337   -1.1839 H   0  0  0  0  0  0  0  0  0  0  0  0
    5.0153    2.3737    0.4067 H   0  0  0  0  0  0  0  0  0  0  0  0
    2.4289    2.1247    0.1340 H   0  0  0  0  0  0  0  0  0  0  0  0
    3.1359    1.3326    1.5427 H   0  0  0  0  0  0  0  0  0  0  0  0
  1  2  1  0
  1 12  1  0
  1 13  1  0
  1 14  1  0
  2  3  2  0
  2 11  1  0
  3  4  1  0
  4  5  2  0
  4  9  1  0
  5  6  1  0
  6  7  1  0
  6  8  1  0
  7 15  1  0
  7 16  1  0
  7 17  1  0
  8  9  2  0
  8 18  1  0
  9 10  1  0
 10 11  1  0
 10 19  1  0
 10 20  1  0
 11 21  1  0
 11 22  1  0
M  END

