
     RDKit          3D

 43 44  0  0  0  0  0  0  0  0999 V2000
    1.1036   -0.0938   -2.4616 N   0  0  0  0  0  0  0  0  0  0  0  0
    2.4154    0.5538   -2.5566 C   0  0  1  0  0  0  0  0  0  0  0  0
    2.5093    1.6635   -3.6306 C   0  0  0  0  0  0  0  0  0  0  0  0
    1.6946    2.9095   -3.2586 C   0  0  0  0  0  0  0  0  0  0  0  0
    2.0949    3.4483   -1.8788 C   0  0  0  0  0  0  0  0  0  0  0  0
    2.0168    2.3591   -0.7993 C   0  0  0  0  0  0  0  0  0  0  0  0
    2.8225    1.0902   -1.1592 C   0  0  2  0  0  0  0  0  0  0  0  0
    4.3562    1.2989   -1.0647 C   0  0  0  0  0  0  0  0  0  0  0  0
    4.8164    1.6836    0.3341 C   0  0  0  0  0  0  0  0  0  0  0  0
    4.8704    2.8490    0.6950 O   0  0  0  0  0  0  0  0  0  0  0  0
    5.1405    0.6705    1.2071 N   0  0  0  0  0  0  0  0  0  0  0  0
    5.1627   -0.7560    0.9776 C   0  0  0  0  0  0  0  0  0  0  0  0
    6.5130   -1.3369    0.5507 C   0  0  0  0  0  0  0  0  0  0  0  0
    7.6340   -0.5107    0.4169 C   0  0  0  0  0  0  0  0  0  0  0  0
    8.8784   -1.0239    0.0363 C   0  0  0  0  0  0  0  0  0  0  0  0
    9.0238   -2.3863   -0.2191 C   0  0  0  0  0  0  0  0  0  0  0  0
    7.9174   -3.2295   -0.0920 C   0  0  0  0  0  0  0  0  0  0  0  0
    6.6721   -2.7183    0.2884 C   0  0  0  0  0  0  0  0  0  0  0  0
    5.5033   -3.6709    0.4092 C   0  0  1  0  0  0  0  0  0  0  0  0
    4.9821   -3.6748    1.6553 F   0  0  0  0  0  0  0  0  0  0  0  0
    4.4955   -3.3386   -0.4268 F   0  0  0  0  0  0  0  0  0  0  0  0
    5.8432   -4.9365    0.1256 F   0  0  0  0  0  0  0  0  0  0  0  0
    0.8536   -0.5117   -3.3585 H   0  0  0  0  0  0  0  0  0  0  0  0
    0.3731    0.5883   -2.2577 H   0  0  0  0  0  0  0  0  0  0  0  0
    3.1278   -0.2451   -2.8289 H   0  0  0  0  0  0  0  0  0  0  0  0
    2.1740    1.2550   -4.6003 H   0  0  0  0  0  0  0  0  0  0  0  0
    3.5673    1.9494   -3.7717 H   0  0  0  0  0  0  0  0  0  0  0  0
    0.6182    2.6550   -3.2532 H   0  0  0  0  0  0  0  0  0  0  0  0
    1.8156    3.6876   -4.0307 H   0  0  0  0  0  0  0  0  0  0  0  0
    1.4497    4.2973   -1.5969 H   0  0  0  0  0  0  0  0  0  0  0  0
    3.1216    3.8516   -1.9198 H   0  0  0  0  0  0  0  0  0  0  0  0
    0.9605    2.0700   -0.6516 H   0  0  0  0  0  0  0  0  0  0  0  0
    2.3604    2.7637    0.1646 H   0  0  0  0  0  0  0  0  0  0  0  0
    2.5468    0.2975   -0.4434 H   0  0  0  0  0  0  0  0  0  0  0  0
    4.6779    2.1241   -1.7150 H   0  0  0  0  0  0  0  0  0  0  0  0
    4.8671    0.3900   -1.4184 H   0  0  0  0  0  0  0  0  0  0  0  0
    5.4246    1.0122    2.1209 H   0  0  0  0  0  0  0  0  0  0  0  0
    4.4026   -1.0221    0.2309 H   0  0  0  0  0  0  0  0  0  0  0  0
    4.8395   -1.2614    1.9011 H   0  0  0  0  0  0  0  0  0  0  0  0
    7.5273    0.5570    0.6148 H   0  0  0  0  0  0  0  0  0  0  0  0
    9.7340   -0.3507   -0.0593 H   0  0  0  0  0  0  0  0  0  0  0  0
    9.9912   -2.7970   -0.5169 H   0  0  0  0  0  0  0  0  0  0  0  0
    8.0180   -4.2970   -0.2905 H   0  0  0  0  0  0  0  0  0  0  0  0
  1  2  1  0
  1 23  1  0
  1 24  1  0
  2  3  1  0
  2  7  1  0
  2 25  1  6
  3  4  1  0
  3 26  1  0
  3 27  1  0
  4  5  1  0
  4 28  1  0
  4 29  1  0
  5  6  1  0
  5 30  1  0
  5 31  1  0
  6  7  1  0
  6 32  1  0
  6 33  1  0
  7  8  1  0
  7 34  1  1
  8  9  1  0
  8 35  1  0
  8 36  1  0
  9 10  2  0
  9 11  1  0
 11 12  1  0
 11 37  1  0
 12 13  1  0
 12 38  1  0
 12 39  1  0
 13 14  2  0
 13 18  1  0
 14 15  1  0
 14 40  1  0
 15 16  2  0
 15 41  1  0
 16 17  1  0
 16 42  1  0
 17 18  2  0
 17 43  1  0
 18 19  1  0
 19 20  1  1
 19 21  1  0
 19 22  1  0
M  END

