
     RDKit          3D

 37 38  0  0  0  0  0  0  0  0999 V2000
    5.4276   -0.6041   -3.5420 C   0  0  0  0  0  0  0  0  0  0  0  0
    4.4753   -1.2501   -2.5387 C   0  0  0  0  0  0  0  0  0  0  0  0
    4.7842   -0.9501   -1.1381 N   0  0  0  0  0  0  0  0  0  0  0  0
    4.7235    0.4684   -0.7709 C   0  0  0  0  0  0  0  0  0  0  0  0
    3.3492    1.1475   -0.8530 C   0  0  0  0  0  0  0  0  0  0  0  0
    4.0984   -1.8372   -0.1987 C   0  0  0  0  0  0  0  0  0  0  0  0
    4.7433   -3.2265   -0.1302 C   0  0  0  0  0  0  0  0  0  0  0  0
    6.1751   -3.0676    0.0297 N   0  0  0  0  0  0  0  0  0  0  0  0
    7.0095   -4.0492    0.4284 C   0  0  0  0  0  0  0  0  0  0  0  0
    6.4704   -5.2225    0.7698 N   0  0  0  0  0  0  0  0  0  0  0  0
    7.2289   -6.2424    1.1914 N   0  0  0  0  0  0  0  0  0  0  0  0
    8.5117   -6.1633    1.2772 N   0  0  0  0  0  0  0  0  0  0  0  0
    9.1463   -4.9929    0.9426 C   0  0  0  0  0  0  0  0  0  0  0  0
   10.5594   -4.9333    1.0494 C   0  0  0  0  0  0  0  0  0  0  0  0
   11.2340   -3.7729    0.7317 C   0  0  0  0  0  0  0  0  0  0  0  0
   10.5091   -2.6354    0.2993 C   0  0  0  0  0  0  0  0  0  0  0  0
   11.3859   -1.1757   -0.0902 Cl  0  0  0  0  0  0  0  0  0  0  0  0
    9.1303   -2.6611    0.1837 C   0  0  0  0  0  0  0  0  0  0  0  0
    8.4364   -3.8511    0.5030 C   0  0  0  0  0  0  0  0  0  0  0  0
    5.2091   -0.9707   -4.5571 H   0  0  0  0  0  0  0  0  0  0  0  0
    6.4749   -0.8529   -3.3064 H   0  0  0  0  0  0  0  0  0  0  0  0
    5.3364    0.4928   -3.5664 H   0  0  0  0  0  0  0  0  0  0  0  0
    4.5336   -2.3430   -2.6609 H   0  0  0  0  0  0  0  0  0  0  0  0
    3.4270   -0.9788   -2.7934 H   0  0  0  0  0  0  0  0  0  0  0  0
    5.4392    1.0185   -1.4026 H   0  0  0  0  0  0  0  0  0  0  0  0
    5.1091    0.5546    0.2590 H   0  0  0  0  0  0  0  0  0  0  0  0
    2.9479    1.1524   -1.8789 H   0  0  0  0  0  0  0  0  0  0  0  0
    3.4274    2.1969   -0.5266 H   0  0  0  0  0  0  0  0  0  0  0  0
    2.6079    0.6539   -0.2040 H   0  0  0  0  0  0  0  0  0  0  0  0
    3.0184   -1.9604   -0.4254 H   0  0  0  0  0  0  0  0  0  0  0  0
    4.1626   -1.3793    0.8014 H   0  0  0  0  0  0  0  0  0  0  0  0
    4.5139   -3.8253   -1.0316 H   0  0  0  0  0  0  0  0  0  0  0  0
    4.3374   -3.7962    0.7181 H   0  0  0  0  0  0  0  0  0  0  0  0
    6.5354   -2.2074   -0.3753 H   0  0  0  0  0  0  0  0  0  0  0  0
   11.0830   -5.8286    1.3897 H   0  0  0  0  0  0  0  0  0  0  0  0
   12.3209   -3.7128    0.8099 H   0  0  0  0  0  0  0  0  0  0  0  0
    8.6064   -1.7626   -0.1458 H   0  0  0  0  0  0  0  0  0  0  0  0
  1  2  1  0
  1 20  1  0
  1 21  1  0
  1 22  1  0
  2  3  1  0
  2 23  1  0
  2 24  1  0
  3  4  1  0
  3  6  1  0
  4  5  1  0
  4 25  1  0
  4 26  1  0
  5 27  1  0
  5 28  1  0
  5 29  1  0
  6  7  1  0
  6 30  1  0
  6 31  1  0
  7  8  1  0
  7 32  1  0
  7 33  1  0
  8  9  1  0
  8 34  1  0
  9 10  2  0
  9 19  1  0
 10 11  1  0
 11 12  2  0
 12 13  1  0
 13 14  1  0
 13 19  2  0
 14 15  2  0
 14 35  1  0
 15 16  1  0
 15 36  1  0
 16 17  1  0
 16 18  2  0
 18 19  1  0
 18 37  1  0
M  END

