
     RDKit          3D

 70 70  0  0  0  0  0  0  0  0999 V2000
    8.6174    3.5072   -2.7111 C   0  0  0  0  0  0  0  0  0  0  0  0
    7.5900    3.9106   -1.6766 C   0  0  0  0  0  0  0  0  0  0  0  0
    6.3494    4.4983   -2.3095 C   0  0  0  0  0  0  0  0  0  0  0  0
    7.7798    3.7493   -0.3440 C   0  0  0  0  0  0  0  0  0  0  0  0
    9.0822    3.1867    0.2047 C   0  0  0  0  0  0  0  0  0  0  0  0
    6.7415    4.1315    0.7005 C   0  0  0  0  0  0  0  0  0  0  0  0
    5.8449    2.9980    1.2868 C   0  0  1  0  0  0  0  0  0  0  0  0
    5.1031    2.2315    0.1842 C   0  0  0  0  0  0  0  0  0  0  0  0
    6.5724    2.0092    2.2284 C   0  0  0  0  0  0  0  0  0  0  0  0
    7.0658    2.5631    3.5886 C   0  0  1  0  0  0  0  0  0  0  0  0
    6.0254    2.4737    4.7314 C   0  0  0  0  0  0  0  0  0  0  0  0
    4.6507    3.1150    4.5154 C   0  0  0  0  0  0  0  0  0  0  0  0
    3.7471    3.0581    5.7620 C   0  0  0  0  0  0  0  0  0  0  0  0
    3.4243    1.6589    6.3160 C   0  0  0  0  0  0  0  0  0  0  0  0
    2.6159    0.7560    5.3725 C   0  0  0  0  0  0  0  0  0  0  0  0
    2.2855   -0.6503    5.9265 C   0  0  0  0  0  0  0  0  0  0  0  0
    3.2146   -1.7883    5.4693 C   0  0  0  0  0  0  0  0  0  0  0  0
    4.6673   -1.7084    5.9510 C   0  0  0  0  0  0  0  0  0  0  0  0
    5.5568   -2.8293    5.3904 C   0  0  0  0  0  0  0  0  0  0  0  0
    7.0485   -2.7733    5.7835 C   0  0  0  0  0  0  0  0  0  0  0  0
    7.9675   -1.9330    4.8773 C   0  0  0  0  0  0  0  0  0  0  0  0
    7.6431   -0.4374    4.8242 C   0  0  0  0  0  0  0  0  0  0  0  0
    8.5946    0.3976    3.9606 C   0  0  0  0  0  0  0  0  0  0  0  0
    8.4193    1.9296    4.0219 C   0  0  0  0  0  0  0  0  0  0  0  0
    8.1592    2.8455   -3.4678 H   0  0  0  0  0  0  0  0  0  0  0  0
    9.4859    2.9802   -2.2979 H   0  0  0  0  0  0  0  0  0  0  0  0
    8.9869    4.3907   -3.2639 H   0  0  0  0  0  0  0  0  0  0  0  0
    5.7937    3.7271   -2.8733 H   0  0  0  0  0  0  0  0  0  0  0  0
    6.6272    5.2742   -3.0450 H   0  0  0  0  0  0  0  0  0  0  0  0
    5.6505    4.9505   -1.5955 H   0  0  0  0  0  0  0  0  0  0  0  0
    9.9639    3.5675   -0.3320 H   0  0  0  0  0  0  0  0  0  0  0  0
    9.1246    2.0843    0.1501 H   0  0  0  0  0  0  0  0  0  0  0  0
    9.2097    3.4558    1.2633 H   0  0  0  0  0  0  0  0  0  0  0  0
    6.0604    4.8908    0.2899 H   0  0  0  0  0  0  0  0  0  0  0  0
    7.2599    4.6296    1.5385 H   0  0  0  0  0  0  0  0  0  0  0  0
    5.0820    3.5235    1.8847 H   0  0  0  0  0  0  0  0  0  0  0  0
    5.8031    1.6636   -0.4505 H   0  0  0  0  0  0  0  0  0  0  0  0
    4.5371    2.9098   -0.4734 H   0  0  0  0  0  0  0  0  0  0  0  0
    4.3872    1.5144    0.6181 H   0  0  0  0  0  0  0  0  0  0  0  0
    7.4224    1.5773    1.6761 H   0  0  0  0  0  0  0  0  0  0  0  0
    5.8958    1.1559    2.4164 H   0  0  0  0  0  0  0  0  0  0  0  0
    7.2816    3.6388    3.4510 H   0  0  0  0  0  0  0  0  0  0  0  0
    6.4802    2.9277    5.6314 H   0  0  0  0  0  0  0  0  0  0  0  0
    5.8708    1.4171    4.9865 H   0  0  0  0  0  0  0  0  0  0  0  0
    4.1357    2.6286    3.6697 H   0  0  0  0  0  0  0  0  0  0  0  0
    4.7724    4.1738    4.2242 H   0  0  0  0  0  0  0  0  0  0  0  0
    2.7982    3.5763    5.5322 H   0  0  0  0  0  0  0  0  0  0  0  0
    4.2225    3.6470    6.5673 H   0  0  0  0  0  0  0  0  0  0  0  0
    2.8489    1.7847    7.2507 H   0  0  0  0  0  0  0  0  0  0  0  0
    4.3557    1.1511    6.6177 H   0  0  0  0  0  0  0  0  0  0  0  0
    3.1423    0.6459    4.4072 H   0  0  0  0  0  0  0  0  0  0  0  0
    1.6742    1.2802    5.1307 H   0  0  0  0  0  0  0  0  0  0  0  0
    1.2615   -0.9198    5.6173 H   0  0  0  0  0  0  0  0  0  0  0  0
    2.2588   -0.6150    7.0313 H   0  0  0  0  0  0  0  0  0  0  0  0
    3.2068   -1.8231    4.3634 H   0  0  0  0  0  0  0  0  0  0  0  0
    2.7824   -2.7513    5.7975 H   0  0  0  0  0  0  0  0  0  0  0  0
    4.6907   -1.7437    7.0561 H   0  0  0  0  0  0  0  0  0  0  0  0
    5.0858   -0.7295    5.6772 H   0  0  0  0  0  0  0  0  0  0  0  0
    5.4737   -2.8438    4.2871 H   0  0  0  0  0  0  0  0  0  0  0  0
    5.1372   -3.7947    5.7255 H   0  0  0  0  0  0  0  0  0  0  0  0
    7.4454   -3.8028    5.7906 H   0  0  0  0  0  0  0  0  0  0  0  0
    7.1368   -2.4163    6.8267 H   0  0  0  0  0  0  0  0  0  0  0  0
    7.9362   -2.3474    3.8519 H   0  0  0  0  0  0  0  0  0  0  0  0
    9.0102   -2.0647    5.2201 H   0  0  0  0  0  0  0  0  0  0  0  0
    7.6297   -0.0343    5.8537 H   0  0  0  0  0  0  0  0  0  0  0  0
    6.6217   -0.3179    4.4366 H   0  0  0  0  0  0  0  0  0  0  0  0
    8.5190    0.0543    2.9134 H   0  0  0  0  0  0  0  0  0  0  0  0
    9.6349    0.1765    4.2627 H   0  0  0  0  0  0  0  0  0  0  0  0
    9.2113    2.3651    3.3882 H   0  0  0  0  0  0  0  0  0  0  0  0
    8.6454    2.2696    5.0489 H   0  0  0  0  0  0  0  0  0  0  0  0
  1  2  1  0
  1 25  1  0
  1 26  1  0
  1 27  1  0
  2  3  1  0
  2  4  2  0
  3 28  1  0
  3 29  1  0
  3 30  1  0
  4  5  1  0
  4  6  1  0
  5 31  1  0
  5 32  1  0
  5 33  1  0
  6  7  1  0
  6 34  1  0
  6 35  1  0
  7  8  1  0
  7  9  1  0
  7 36  1  1
  8 37  1  0
  8 38  1  0
  8 39  1  0
  9 10  1  0
  9 40  1  0
  9 41  1  0
 10 11  1  0
 10 24  1  0
 10 42  1  6
 11 12  1  0
 11 43  1  0
 11 44  1  0
 12 13  1  0
 12 45  1  0
 12 46  1  0
 13 14  1  0
 13 47  1  0
 13 48  1  0
 14 15  1  0
 14 49  1  0
 14 50  1  0
 15 16  1  0
 15 51  1  0
 15 52  1  0
 16 17  1  0
 16 53  1  0
 16 54  1  0
 17 18  1  0
 17 55  1  0
 17 56  1  0
 18 19  1  0
 18 57  1  0
 18 58  1  0
 19 20  1  0
 19 59  1  0
 19 60  1  0
 20 21  1  0
 20 61  1  0
 20 62  1  0
 21 22  1  0
 21 63  1  0
 21 64  1  0
 22 23  1  0
 22 65  1  0
 22 66  1  0
 23 24  1  0
 23 67  1  0
 23 68  1  0
 24 69  1  0
 24 70  1  0
M  END

