
     RDKit          3D

 43 43  0  0  0  0  0  0  0  0999 V2000
    3.2274    0.2709    3.7108 C   0  0  0  0  0  0  0  0  0  0  0  0
    3.2670   -0.2240    2.4704 C   0  0  0  0  0  0  0  0  0  0  0  0
    4.1072   -1.3854    2.0169 C   0  0  0  0  0  0  0  0  0  0  0  0
    5.1060   -1.0180    0.9066 C   0  0  0  0  0  0  0  0  0  0  0  0
    5.9318   -2.2090    0.4131 C   0  0  0  0  0  0  0  0  0  0  0  0
    6.9384   -1.8373   -0.6905 C   0  0  0  0  0  0  0  0  0  0  0  0
    7.7062   -3.0152   -1.2062 C   0  0  0  0  0  0  0  0  0  0  0  0
    9.0382   -3.1611   -1.1817 C   0  0  0  0  0  0  0  0  0  0  0  0
    9.6839   -4.3953   -1.7228 C   0  0  0  0  0  0  0  0  0  0  0  0
    9.0531   -5.3273   -2.2038 O   0  0  0  0  0  0  0  0  0  0  0  0
   11.0521   -4.4113   -1.6358 N   0  0  0  0  0  0  0  0  0  0  0  0
   11.8389   -5.5360   -2.1101 C   0  0  0  0  0  0  0  0  0  0  0  0
   12.1269   -5.5113   -3.6281 C   0  0  1  0  0  0  0  0  0  0  0  0
   12.9155   -4.2685   -4.0873 C   0  0  0  0  0  0  0  0  0  0  0  0
   14.4037   -4.3688   -3.7450 C   0  0  0  0  0  0  0  0  0  0  0  0
   14.9828   -5.5524   -4.2565 O   0  0  0  0  0  0  0  0  0  0  0  0
   14.3711   -6.7214   -3.7461 C   0  0  0  0  0  0  0  0  0  0  0  0
   12.8789   -6.7785   -4.0844 C   0  0  0  0  0  0  0  0  0  0  0  0
    2.5928    1.1237    3.9681 H   0  0  0  0  0  0  0  0  0  0  0  0
    3.8261   -0.1619    4.5198 H   0  0  0  0  0  0  0  0  0  0  0  0
    2.6482    0.2477    1.6944 H   0  0  0  0  0  0  0  0  0  0  0  0
    3.4429   -2.1862    1.6392 H   0  0  0  0  0  0  0  0  0  0  0  0
    4.6484   -1.8125    2.8790 H   0  0  0  0  0  0  0  0  0  0  0  0
    5.7808   -0.2257    1.2771 H   0  0  0  0  0  0  0  0  0  0  0  0
    4.5588   -0.5739    0.0545 H   0  0  0  0  0  0  0  0  0  0  0  0
    5.2542   -2.9970    0.0370 H   0  0  0  0  0  0  0  0  0  0  0  0
    6.4770   -2.6599    1.2613 H   0  0  0  0  0  0  0  0  0  0  0  0
    7.6312   -1.0617   -0.3211 H   0  0  0  0  0  0  0  0  0  0  0  0
    6.3804   -1.3836   -1.5322 H   0  0  0  0  0  0  0  0  0  0  0  0
    7.1321   -3.8466   -1.6355 H   0  0  0  0  0  0  0  0  0  0  0  0
    9.6780   -2.3739   -0.7647 H   0  0  0  0  0  0  0  0  0  0  0  0
   11.5243   -3.6124   -1.2330 H   0  0  0  0  0  0  0  0  0  0  0  0
   11.2728   -6.4528   -1.8842 H   0  0  0  0  0  0  0  0  0  0  0  0
   12.7700   -5.5695   -1.5226 H   0  0  0  0  0  0  0  0  0  0  0  0
   11.1383   -5.5006   -4.1146 H   0  0  0  0  0  0  0  0  0  0  0  0
   12.4857   -3.3510   -3.6504 H   0  0  0  0  0  0  0  0  0  0  0  0
   12.8207   -4.1702   -5.1820 H   0  0  0  0  0  0  0  0  0  0  0  0
   14.5564   -4.3181   -2.6443 H   0  0  0  0  0  0  0  0  0  0  0  0
   14.9636   -3.5295   -4.1862 H   0  0  0  0  0  0  0  0  0  0  0  0
   14.5264   -6.7805   -2.6472 H   0  0  0  0  0  0  0  0  0  0  0  0
   14.9049   -7.5743   -4.1931 H   0  0  0  0  0  0  0  0  0  0  0  0
   12.4284   -7.6832   -3.6405 H   0  0  0  0  0  0  0  0  0  0  0  0
   12.7789   -6.8769   -5.1786 H   0  0  0  0  0  0  0  0  0  0  0  0
  1  2  2  0
  1 19  1  0
  1 20  1  0
  2  3  1  0
  2 21  1  0
  3  4  1  0
  3 22  1  0
  3 23  1  0
  4  5  1  0
  4 24  1  0
  4 25  1  0
  5  6  1  0
  5 26  1  0
  5 27  1  0
  6  7  1  0
  6 28  1  0
  6 29  1  0
  7  8  2  0
  7 30  1  0
  8  9  1  0
  8 31  1  0
  9 10  2  0
  9 11  1  0
 11 12  1  0
 11 32  1  0
 12 13  1  0
 12 33  1  0
 12 34  1  0
 13 14  1  0
 13 18  1  0
 13 35  1  6
 14 15  1  0
 14 36  1  0
 14 37  1  0
 15 16  1  0
 15 38  1  0
 15 39  1  0
 16 17  1  0
 17 18  1  0
 17 40  1  0
 17 41  1  0
 18 42  1  0
 18 43  1  0
M  END

