
     RDKit          3D

 46 47  0  0  0  0  0  0  0  0999 V2000
    3.0273   -1.9300   -5.2736 C   0  0  0  0  0  0  0  0  0  0  0  0
    2.8434   -1.0193   -4.1484 N   0  0  0  0  0  0  0  0  0  0  0  0
    2.9021   -1.6556   -2.5854 S   0  0  1  0  0  0  0  0  0  0  0  0
    2.1602   -0.6955   -1.7659 O   0  0  0  0  0  0  0  0  0  0  0  0
    2.5548   -3.0820   -2.6029 O   0  0  0  0  0  0  0  0  0  0  0  0
    4.6480   -1.5402   -2.1785 C   0  0  0  0  0  0  0  0  0  0  0  0
    5.2202   -0.2799   -1.9776 C   0  0  0  0  0  0  0  0  0  0  0  0
    6.5680   -0.2056   -1.6228 C   0  0  0  0  0  0  0  0  0  0  0  0
    7.3207   -1.3730   -1.4684 C   0  0  0  0  0  0  0  0  0  0  0  0
    6.7423   -2.6339   -1.6730 C   0  0  0  0  0  0  0  0  0  0  0  0
    7.6230   -3.8461   -1.4676 C   0  0  0  0  0  0  0  0  0  0  0  0
    8.7124   -3.7439   -0.9183 O   0  0  0  0  0  0  0  0  0  0  0  0
    7.1239   -5.0318   -1.9187 N   0  0  0  0  0  0  0  0  0  0  0  0
    7.8987   -6.2666   -1.9014 C   0  0  1  0  0  0  0  0  0  0  0  0
    8.1754   -6.7721   -0.4833 C   0  0  0  0  0  0  0  0  0  0  0  0
    7.1161   -7.3198   -2.7115 C   0  0  0  0  0  0  0  0  0  0  0  0
    6.5898   -6.7945   -3.9685 N   0  0  0  0  0  0  0  0  0  0  0  0
    7.5815   -6.5835   -5.0306 C   0  0  0  0  0  0  0  0  0  0  0  0
    7.8955   -7.8698   -5.8009 C   0  0  0  0  0  0  0  0  0  0  0  0
    6.7133   -8.4557   -6.3129 O   0  0  0  0  0  0  0  0  0  0  0  0
    5.7794   -8.7500   -5.2904 C   0  0  0  0  0  0  0  0  0  0  0  0
    5.4146   -7.4849   -4.5088 C   0  0  0  0  0  0  0  0  0  0  0  0
    5.3848   -2.7137   -2.0212 C   0  0  0  0  0  0  0  0  0  0  0  0
    2.9710   -1.3441   -6.2029 H   0  0  0  0  0  0  0  0  0  0  0  0
    2.2838   -2.7445   -5.3097 H   0  0  0  0  0  0  0  0  0  0  0  0
    4.0311   -2.3790   -5.2269 H   0  0  0  0  0  0  0  0  0  0  0  0
    2.0142   -0.4264   -4.1955 H   0  0  0  0  0  0  0  0  0  0  0  0
    4.6127    0.6201   -2.0888 H   0  0  0  0  0  0  0  0  0  0  0  0
    7.0324    0.7694   -1.4567 H   0  0  0  0  0  0  0  0  0  0  0  0
    8.3721   -1.3370   -1.1769 H   0  0  0  0  0  0  0  0  0  0  0  0
    6.4077   -5.0254   -2.6435 H   0  0  0  0  0  0  0  0  0  0  0  0
    8.8771   -6.0764   -2.3837 H   0  0  0  0  0  0  0  0  0  0  0  0
    7.2317   -6.9475    0.0585 H   0  0  0  0  0  0  0  0  0  0  0  0
    8.7680   -6.0338    0.0721 H   0  0  0  0  0  0  0  0  0  0  0  0
    8.7383   -7.7189   -0.5182 H   0  0  0  0  0  0  0  0  0  0  0  0
    6.2524   -7.6417   -2.1062 H   0  0  0  0  0  0  0  0  0  0  0  0
    7.7669   -8.2107   -2.8261 H   0  0  0  0  0  0  0  0  0  0  0  0
    8.5011   -6.1530   -4.6049 H   0  0  0  0  0  0  0  0  0  0  0  0
    7.1730   -5.8433   -5.7413 H   0  0  0  0  0  0  0  0  0  0  0  0
    8.4284   -8.5928   -5.1475 H   0  0  0  0  0  0  0  0  0  0  0  0
    8.5482   -7.6572   -6.6620 H   0  0  0  0  0  0  0  0  0  0  0  0
    6.1902   -9.5224   -4.6058 H   0  0  0  0  0  0  0  0  0  0  0  0
    4.8901   -9.1765   -5.7806 H   0  0  0  0  0  0  0  0  0  0  0  0
    4.7164   -7.7200   -3.6895 H   0  0  0  0  0  0  0  0  0  0  0  0
    4.8962   -6.7924   -5.1961 H   0  0  0  0  0  0  0  0  0  0  0  0
    4.8726   -3.6691   -2.1442 H   0  0  0  0  0  0  0  0  0  0  0  0
  1  2  1  0
  1 24  1  0
  1 25  1  0
  1 26  1  0
  3  2  1  6
  2 27  1  0
  3  4  2  0
  3  5  2  0
  3  6  1  0
  6  7  2  0
  6 23  1  0
  7  8  1  0
  7 28  1  0
  8  9  2  0
  8 29  1  0
  9 10  1  0
  9 30  1  0
 10 11  1  0
 10 23  2  0
 11 12  2  0
 11 13  1  0
 13 14  1  0
 13 31  1  0
 14 15  1  0
 14 16  1  0
 14 32  1  6
 15 33  1  0
 15 34  1  0
 15 35  1  0
 16 17  1  0
 16 36  1  0
 16 37  1  0
 17 18  1  0
 17 22  1  0
 18 19  1  0
 18 38  1  0
 18 39  1  0
 19 20  1  0
 19 40  1  0
 19 41  1  0
 20 21  1  0
 21 22  1  0
 21 42  1  0
 21 43  1  0
 22 44  1  0
 22 45  1  0
 23 46  1  0
M  END

