
     RDKit          3D

 30 31  0  0  0  0  0  0  0  0999 V2000
    2.9723    0.8806   -1.0641 C   0  0  0  0  0  0  0  0  0  0  0  0
    2.5800   -0.2944   -0.3097 N   0  0  0  0  0  0  0  0  0  0  0  0
    3.1218   -0.4198    1.0370 C   0  0  1  0  0  0  0  0  0  0  0  0
    2.4259   -1.5789    1.7387 C   0  0  0  0  0  0  0  0  0  0  0  0
    0.9956   -1.7156    1.7519 C   0  0  0  0  0  0  0  0  0  0  0  0
    0.5691   -2.8201    2.4395 C   0  0  0  0  0  0  0  0  0  0  0  0
    1.9001   -3.7219    3.0845 S   0  0  0  0  0  0  0  0  0  0  0  0
    3.0412   -2.6025    2.4212 C   0  0  0  0  0  0  0  0  0  0  0  0
    4.6526   -0.5021    1.1515 C   0  0  0  0  0  0  0  0  0  0  0  0
    5.3784   -1.1714    0.1584 C   0  0  0  0  0  0  0  0  0  0  0  0
    6.7674   -1.2825    0.2389 C   0  0  0  0  0  0  0  0  0  0  0  0
    7.6423   -2.1263   -1.0230 Cl  0  0  0  0  0  0  0  0  0  0  0  0
    7.4613   -0.7251    1.3124 C   0  0  0  0  0  0  0  0  0  0  0  0
    6.7368   -0.0587    2.3023 C   0  0  0  0  0  0  0  0  0  0  0  0
    5.3398    0.0681    2.2490 C   0  0  0  0  0  0  0  0  0  0  0  0
    4.6110    0.7962    3.3548 C   0  0  0  0  0  0  0  0  0  0  0  0
    2.4603    0.8786   -2.0392 H   0  0  0  0  0  0  0  0  0  0  0  0
    4.0619    0.9802   -1.2513 H   0  0  0  0  0  0  0  0  0  0  0  0
    2.6488    1.7893   -0.5278 H   0  0  0  0  0  0  0  0  0  0  0  0
    2.6971   -1.1538   -0.8420 H   0  0  0  0  0  0  0  0  0  0  0  0
    2.8117    0.5016    1.5623 H   0  0  0  0  0  0  0  0  0  0  0  0
    0.3308   -1.0138    1.2476 H   0  0  0  0  0  0  0  0  0  0  0  0
   -0.4531   -3.1594    2.6024 H   0  0  0  0  0  0  0  0  0  0  0  0
    4.1081   -2.7595    2.5681 H   0  0  0  0  0  0  0  0  0  0  0  0
    4.8616   -1.6130   -0.6953 H   0  0  0  0  0  0  0  0  0  0  0  0
    8.5475   -0.8109    1.3699 H   0  0  0  0  0  0  0  0  0  0  0  0
    7.2772    0.3788    3.1465 H   0  0  0  0  0  0  0  0  0  0  0  0
    5.3100    1.1157    4.1411 H   0  0  0  0  0  0  0  0  0  0  0  0
    3.8421    0.1626    3.8251 H   0  0  0  0  0  0  0  0  0  0  0  0
    4.0988    1.6998    2.9824 H   0  0  0  0  0  0  0  0  0  0  0  0
  1  2  1  0
  1 17  1  0
  1 18  1  0
  1 19  1  0
  2  3  1  0
  2 20  1  0
  3  4  1  0
  3  9  1  0
  3 21  1  1
  4  5  1  0
  4  8  2  0
  5  6  2  0
  5 22  1  0
  6  7  1  0
  6 23  1  0
  7  8  1  0
  8 24  1  0
  9 10  2  0
  9 15  1  0
 10 11  1  0
 10 25  1  0
 11 12  1  0
 11 13  2  0
 13 14  1  0
 13 26  1  0
 14 15  2  0
 14 27  1  0
 15 16  1  0
 16 28  1  0
 16 29  1  0
 16 30  1  0
M  END

