
     RDKit          3D

 35 36  0  0  0  0  0  0  0  0999 V2000
    3.7284    0.7674    0.7987 C   0  0  0  0  0  0  0  0  0  0  0  0
    2.5753    0.1539    0.0115 C   0  0  1  0  0  0  0  0  0  0  0  0
    2.7740    0.2455   -1.5058 C   0  0  0  0  0  0  0  0  0  0  0  0
    3.9962   -0.4107   -1.9603 N   0  0  0  0  0  0  0  0  0  0  0  0
    4.2097   -0.3756   -3.4002 C   0  0  0  0  0  0  0  0  0  0  0  0
    5.6564   -0.6721   -3.8226 C   0  0  0  0  0  0  0  0  0  0  0  0
    5.9160   -1.0282   -4.9583 O   0  0  0  0  0  0  0  0  0  0  0  0
    6.5619   -0.4506   -2.8219 N   0  0  0  0  0  0  0  0  0  0  0  0
    7.9623   -0.5699   -2.8451 C   0  0  0  0  0  0  0  0  0  0  0  0
    8.6681   -0.2774   -1.6635 C   0  0  0  0  0  0  0  0  0  0  0  0
   10.0581   -0.3756   -1.6160 C   0  0  0  0  0  0  0  0  0  0  0  0
   10.7469   -0.7701   -2.7606 C   0  0  0  0  0  0  0  0  0  0  0  0
   12.0862   -0.8671   -2.7217 F   0  0  0  0  0  0  0  0  0  0  0  0
   10.0709   -1.0642   -3.9414 C   0  0  0  0  0  0  0  0  0  0  0  0
    8.6789   -0.9657   -3.9902 C   0  0  0  0  0  0  0  0  0  0  0  0
    2.0803   -1.2407    0.4897 C   0  0  0  0  0  0  0  0  0  0  0  0
    0.7525   -0.7512    0.7081 O   0  0  0  0  0  0  0  0  0  0  0  0
    1.1497    0.5987    0.4312 C   0  0  0  0  0  0  0  0  0  0  0  0
    4.6754    0.2473    0.5893 H   0  0  0  0  0  0  0  0  0  0  0  0
    3.5404    0.7132    1.8824 H   0  0  0  0  0  0  0  0  0  0  0  0
    3.8665    1.8284    0.5313 H   0  0  0  0  0  0  0  0  0  0  0  0
    2.8312    1.3107   -1.7947 H   0  0  0  0  0  0  0  0  0  0  0  0
    1.8686   -0.1648   -2.0030 H   0  0  0  0  0  0  0  0  0  0  0  0
    3.9994   -1.3808   -1.6418 H   0  0  0  0  0  0  0  0  0  0  0  0
    3.9820    0.6418   -3.7645 H   0  0  0  0  0  0  0  0  0  0  0  0
    3.5645   -1.0607   -3.9837 H   0  0  0  0  0  0  0  0  0  0  0  0
    6.1237   -0.1620   -1.9478 H   0  0  0  0  0  0  0  0  0  0  0  0
    8.1206    0.0328   -0.7688 H   0  0  0  0  0  0  0  0  0  0  0  0
   10.6130   -0.1499   -0.7034 H   0  0  0  0  0  0  0  0  0  0  0  0
   10.6411   -1.3700   -4.8210 H   0  0  0  0  0  0  0  0  0  0  0  0
    8.1340   -1.1908   -4.9045 H   0  0  0  0  0  0  0  0  0  0  0  0
    2.5552   -1.6012    1.4217 H   0  0  0  0  0  0  0  0  0  0  0  0
    2.1057   -2.0595   -0.2545 H   0  0  0  0  0  0  0  0  0  0  0  0
    1.1182    1.2400    1.3320 H   0  0  0  0  0  0  0  0  0  0  0  0
    0.5314    1.0663   -0.3568 H   0  0  0  0  0  0  0  0  0  0  0  0
  2  1  1  1
  1 19  1  0
  1 20  1  0
  1 21  1  0
  2  3  1  0
  2 16  1  0
  2 18  1  0
  3  4  1  0
  3 22  1  0
  3 23  1  0
  4  5  1  0
  4 24  1  0
  5  6  1  0
  5 25  1  0
  5 26  1  0
  6  7  2  0
  6  8  1  0
  8  9  1  0
  8 27  1  0
  9 10  2  0
  9 15  1  0
 10 11  1  0
 10 28  1  0
 11 12  2  0
 11 29  1  0
 12 13  1  0
 12 14  1  0
 14 15  2  0
 14 30  1  0
 15 31  1  0
 16 17  1  0
 16 32  1  0
 16 33  1  0
 17 18  1  0
 18 34  1  0
 18 35  1  0
M  END

