
     RDKit          3D

 73 74  0  0  0  0  0  0  0  0999 V2000
    0.1572    0.0379    0.8464 C   0  0  0  0  0  0  0  0  0  0  0  0
    1.6584   -0.1376    0.6139 C   0  0  0  0  0  0  0  0  0  0  0  0
    2.5217    0.8097    1.4528 C   0  0  0  0  0  0  0  0  0  0  0  0
    4.0278    0.6378    1.2266 C   0  0  0  0  0  0  0  0  0  0  0  0
    4.8740    1.5950    2.0730 C   0  0  0  0  0  0  0  0  0  0  0  0
    6.4066    1.4073    1.9753 C   0  0  1  0  0  0  0  0  0  0  0  0
    6.7913    0.0885    2.3407 O   0  0  0  0  0  0  0  0  0  0  0  0
    6.9371    1.6674    0.5555 C   0  0  0  0  0  0  0  0  0  0  0  0
    6.6099    2.9888    0.1645 O   0  0  0  0  0  0  0  0  0  0  0  0
    6.9212    3.4191   -1.0930 C   0  0  0  0  0  0  0  0  0  0  0  0
    7.6486    2.6678   -2.0277 C   0  0  0  0  0  0  0  0  0  0  0  0
    7.9213    3.2028   -3.2933 C   0  0  0  0  0  0  0  0  0  0  0  0
    7.4695    4.4774   -3.6130 C   0  0  0  0  0  0  0  0  0  0  0  0
    7.7312    4.9881   -4.8266 F   0  0  0  0  0  0  0  0  0  0  0  0
    6.7467    5.2384   -2.6930 C   0  0  0  0  0  0  0  0  0  0  0  0
    6.4737    4.7069   -1.4353 C   0  0  0  0  0  0  0  0  0  0  0  0
    7.0666    2.3321    3.0142 C   0  0  0  0  0  0  0  0  0  0  0  0
    8.9028    2.2555    3.0973 S   0  0  0  0  0  0  0  0  0  0  0  0
    9.3752    3.8621    2.3402 C   0  0  1  0  0  0  0  0  0  0  0  0
    8.7491    4.0147    1.4463 H   0  0  0  0  0  0  0  0  0  0  0  0
    9.2128    5.0726    3.2987 C   0  0  1  0  0  0  0  0  0  0  0  0
    9.7808    4.8034    4.5593 O   0  0  0  0  0  0  0  0  0  0  0  0
   10.0557    6.1530    2.6239 C   0  0  0  0  0  0  0  0  0  0  0  0
   11.1813    5.3966    1.9171 C   0  0  0  0  0  0  0  0  0  0  0  0
   12.1425    5.9067    1.3962 O   0  0  0  0  0  0  0  0  0  0  0  0
   10.8661    3.8891    1.9459 C   0  0  2  0  0  0  0  0  0  0  0  0
   11.4466    3.5007    2.8053 H   0  0  0  0  0  0  0  0  0  0  0  0
   11.2485    3.1155    0.6793 C   0  0  0  0  0  0  0  0  0  0  0  0
   12.7562    2.9119    0.4928 C   0  0  0  0  0  0  0  0  0  0  0  0
   13.1057    2.1289   -0.7753 C   0  0  0  0  0  0  0  0  0  0  0  0
   14.6098    1.9207   -0.9740 C   0  0  0  0  0  0  0  0  0  0  0  0
   14.9540    1.1357   -2.2419 C   0  0  0  0  0  0  0  0  0  0  0  0
   16.4547    0.9401   -2.4433 C   0  0  0  0  0  0  0  0  0  0  0  0
   16.8040    0.1383   -3.6909 C   0  0  0  0  0  0  0  0  0  0  0  0
   16.0021   -0.3351   -4.4470 O   0  0  0  0  0  0  0  0  0  0  0  0
   18.1319   -0.0264   -3.9144 O   0  0  0  0  0  0  0  0  0  0  0  0
   -0.4319   -0.6577    0.2280 H   0  0  0  0  0  0  0  0  0  0  0  0
   -0.1699    1.0617    0.5987 H   0  0  0  0  0  0  0  0  0  0  0  0
   -0.1098   -0.1466    1.9006 H   0  0  0  0  0  0  0  0  0  0  0  0
    1.8867    0.0158   -0.4567 H   0  0  0  0  0  0  0  0  0  0  0  0
    1.9467   -1.1817    0.8348 H   0  0  0  0  0  0  0  0  0  0  0  0
    2.2948    0.6591    2.5245 H   0  0  0  0  0  0  0  0  0  0  0  0
    2.2392    1.8554    1.2308 H   0  0  0  0  0  0  0  0  0  0  0  0
    4.2441    0.7824    0.1532 H   0  0  0  0  0  0  0  0  0  0  0  0
    4.2987   -0.4090    1.4613 H   0  0  0  0  0  0  0  0  0  0  0  0
    4.5958    1.4722    3.1338 H   0  0  0  0  0  0  0  0  0  0  0  0
    4.6319    2.6339    1.7960 H   0  0  0  0  0  0  0  0  0  0  0  0
    6.3617   -0.5386    1.7444 H   0  0  0  0  0  0  0  0  0  0  0  0
    6.4891    0.9389   -0.1461 H   0  0  0  0  0  0  0  0  0  0  0  0
    8.0292    1.5096    0.5587 H   0  0  0  0  0  0  0  0  0  0  0  0
    8.0136    1.6698   -1.7860 H   0  0  0  0  0  0  0  0  0  0  0  0
    8.4865    2.6330   -4.0335 H   0  0  0  0  0  0  0  0  0  0  0  0
    6.4046    6.2365   -2.9738 H   0  0  0  0  0  0  0  0  0  0  0  0
    5.9062    5.2769   -0.6970 H   0  0  0  0  0  0  0  0  0  0  0  0
    6.7001    2.0329    4.0065 H   0  0  0  0  0  0  0  0  0  0  0  0
    6.7648    3.3731    2.8391 H   0  0  0  0  0  0  0  0  0  0  0  0
    8.1496    5.3695    3.3925 H   0  0  0  0  0  0  0  0  0  0  0  0
    9.4903    3.9083    4.8092 H   0  0  0  0  0  0  0  0  0  0  0  0
   10.4480    6.8970    3.3320 H   0  0  0  0  0  0  0  0  0  0  0  0
    9.4789    6.6923    1.8524 H   0  0  0  0  0  0  0  0  0  0  0  0
   10.8316    3.6369   -0.2015 H   0  0  0  0  0  0  0  0  0  0  0  0
   10.7511    2.1307    0.7194 H   0  0  0  0  0  0  0  0  0  0  0  0
   13.1576    2.3782    1.3747 H   0  0  0  0  0  0  0  0  0  0  0  0
   13.2515    3.8954    0.4762 H   0  0  0  0  0  0  0  0  0  0  0  0
   12.6947    2.6569   -1.6556 H   0  0  0  0  0  0  0  0  0  0  0  0
   12.6016    1.1444   -0.7542 H   0  0  0  0  0  0  0  0  0  0  0  0
   15.0250    1.3973   -0.0921 H   0  0  0  0  0  0  0  0  0  0  0  0
   15.1109    2.9062   -0.9997 H   0  0  0  0  0  0  0  0  0  0  0  0
   14.5403    1.6465   -3.1277 H   0  0  0  0  0  0  0  0  0  0  0  0
   14.4674    0.1462   -2.2201 H   0  0  0  0  0  0  0  0  0  0  0  0
   16.9013    0.4234   -1.5725 H   0  0  0  0  0  0  0  0  0  0  0  0
   16.9713    1.9165   -2.5056 H   0  0  0  0  0  0  0  0  0  0  0  0
   18.6480    0.4131   -3.2237 H   0  0  0  0  0  0  0  0  0  0  0  0
  1  2  1  0
  1 37  1  0
  1 38  1  0
  1 39  1  0
  2  3  1  0
  2 40  1  0
  2 41  1  0
  3  4  1  0
  3 42  1  0
  3 43  1  0
  4  5  1  0
  4 44  1  0
  4 45  1  0
  5  6  1  0
  5 46  1  0
  5 47  1  0
  6  7  1  1
  6  8  1  0
  6 17  1  0
  7 48  1  0
  8  9  1  0
  8 49  1  0
  8 50  1  0
  9 10  1  0
 10 11  2  0
 10 16  1  0
 11 12  1  0
 11 51  1  0
 12 13  2  0
 12 52  1  0
 13 14  1  0
 13 15  1  0
 15 16  2  0
 15 53  1  0
 16 54  1  0
 17 18  1  0
 17 55  1  0
 17 56  1  0
 18 19  1  0
 19 20  1  6
 19 21  1  0
 19 26  1  0
 21 22  1  0
 21 23  1  0
 21 57  1  1
 22 58  1  0
 23 24  1  0
 23 59  1  0
 23 60  1  0
 24 25  2  0
 24 26  1  0
 26 27  1  1
 26 28  1  0
 28 29  1  0
 28 61  1  0
 28 62  1  0
 29 30  1  0
 29 63  1  0
 29 64  1  0
 30 31  1  0
 30 65  1  0
 30 66  1  0
 31 32  1  0
 31 67  1  0
 31 68  1  0
 32 33  1  0
 32 69  1  0
 32 70  1  0
 33 34  1  0
 33 71  1  0
 33 72  1  0
 34 35  2  0
 34 36  1  0
 36 73  1  0
M  END

