
     RDKit          3D

 17 17  0  0  0  0  0  0  0  0999 V2000
    1.1219   -0.1412    0.3381 O   0  0  0  0  0  0  0  0  0  0  0  0
    2.4656   -0.0437    0.2041 C   0  0  0  0  0  0  0  0  0  0  0  0
    3.1263    1.1818    0.0813 C   0  0  0  0  0  0  0  0  0  0  0  0
    4.5212    1.2298   -0.0543 C   0  0  0  0  0  0  0  0  0  0  0  0
    5.1819    2.4008   -0.1740 O   0  0  0  0  0  0  0  0  0  0  0  0
    5.2660    0.0343   -0.0673 C   0  0  0  0  0  0  0  0  0  0  0  0
    7.1525    0.1731   -0.2526 Br  0  0  0  0  0  0  0  0  0  0  0  0
    4.5930   -1.1948    0.0565 C   0  0  0  0  0  0  0  0  0  0  0  0
    5.3424   -2.5170    0.0485 C   0  0  1  0  0  0  0  0  0  0  0  0
    6.2220   -2.5994    1.0584 F   0  0  0  0  0  0  0  0  0  0  0  0
    4.5004   -3.5579    0.1774 F   0  0  0  0  0  0  0  0  0  0  0  0
    6.0167   -2.7009   -1.0967 F   0  0  0  0  0  0  0  0  0  0  0  0
    3.2037   -1.2330    0.1911 C   0  0  0  0  0  0  0  0  0  0  0  0
    0.7219    0.7382    0.3324 H   0  0  0  0  0  0  0  0  0  0  0  0
    2.5570    2.1176    0.0907 H   0  0  0  0  0  0  0  0  0  0  0  0
    4.5550    3.1356   -0.1519 H   0  0  0  0  0  0  0  0  0  0  0  0
    2.6793   -2.1819    0.2873 H   0  0  0  0  0  0  0  0  0  0  0  0
  1  2  1  0
  1 14  1  0
  2  3  2  0
  2 13  1  0
  3  4  1  0
  3 15  1  0
  4  5  1  0
  4  6  2  0
  5 16  1  0
  6  7  1  0
  6  8  1  0
  8  9  1  0
  8 13  2  0
  9 10  1  1
  9 11  1  0
  9 12  1  0
 13 17  1  0
M  END

