
     RDKit          3D

 82 87  0  0  0  0  0  0  0  0999 V2000
    1.2802   -3.2213   -0.1344 C   0  0  0  0  0  0  0  0  0  0  0  0
    2.6601   -3.0146    0.1626 O   0  0  0  0  0  0  0  0  0  0  0  0
    3.1298   -1.7697   -0.0464 C   0  0  0  0  0  0  0  0  0  0  0  0
    2.4228   -0.8757   -0.4567 O   0  0  0  0  0  0  0  0  0  0  0  0
    4.5913   -1.6111    0.2373 C   0  0  0  0  0  0  0  0  0  0  0  0
    5.1452   -0.3927   -0.1937 C   0  0  0  0  0  0  0  0  0  0  0  0
    6.5013   -0.1194   -0.0678 C   0  0  0  0  0  0  0  0  0  0  0  0
    7.3694   -1.0710    0.4985 C   0  0  0  0  0  0  0  0  0  0  0  0
    8.8240   -0.8072    0.6329 C   0  0  0  0  0  0  0  0  0  0  0  0
    9.3084    0.4904    0.8923 C   0  0  0  0  0  0  0  0  0  0  0  0
   10.6719    0.7408    1.0202 C   0  0  0  0  0  0  0  0  0  0  0  0
   11.6088   -0.2991    0.8878 C   0  0  0  0  0  0  0  0  0  0  0  0
   13.0620   -0.0337    1.0210 C   0  0  0  0  0  0  0  0  0  0  0  0
   13.4618    1.2213    1.2641 N   0  0  0  0  0  0  0  0  0  0  0  0
   14.7609    1.4600    1.3891 C   0  0  0  0  0  0  0  0  0  0  0  0
   15.7469    0.4481    1.2902 C   0  0  0  0  0  0  0  0  0  0  0  0
   17.1060    0.6790    1.4712 N   0  0  0  0  0  0  0  0  0  0  0  0
   17.5604    2.0411    1.7433 C   0  0  0  0  0  0  0  0  0  0  0  0
   18.9732    2.0477    2.3502 C   0  0  0  0  0  0  0  0  0  0  0  0
   19.9519    1.2876    1.5873 N   0  0  0  0  0  0  0  0  0  0  0  0
   20.5103    1.9511    0.4133 C   0  0  0  0  0  0  0  0  0  0  0  0
   21.5890    2.9913    0.7793 C   0  0  0  0  0  0  0  0  0  0  0  0
   22.2289    3.6243   -0.4386 C   0  0  0  0  0  0  0  0  0  0  0  0
   21.6503    4.7736   -0.9997 C   0  0  0  0  0  0  0  0  0  0  0  0
   22.1747    5.3752   -2.1458 C   0  0  0  0  0  0  0  0  0  0  0  0
   23.3055    4.8250   -2.7512 C   0  0  0  0  0  0  0  0  0  0  0  0
   23.8945    3.6840   -2.2016 C   0  0  0  0  0  0  0  0  0  0  0  0
   23.3761    3.0665   -1.0524 C   0  0  0  0  0  0  0  0  0  0  0  0
   24.0596    1.8419   -0.4880 C   0  0  0  0  0  0  0  0  0  0  0  0
   19.4640   -0.0684    1.3952 C   0  0  0  0  0  0  0  0  0  0  0  0
   18.0767   -0.1450    0.7443 C   0  0  0  0  0  0  0  0  0  0  0  0
   15.2094   -0.8335    1.0102 C   0  0  0  0  0  0  0  0  0  0  0  0
   13.9125   -1.0643    0.8860 N   0  0  0  0  0  0  0  0  0  0  0  0
   11.1344   -1.5964    0.6261 C   0  0  0  0  0  0  0  0  0  0  0  0
    9.7697   -1.8437    0.5043 C   0  0  0  0  0  0  0  0  0  0  0  0
    6.8076   -2.2819    0.9416 C   0  0  0  0  0  0  0  0  0  0  0  0
    5.4396   -2.5809    0.8339 C   0  0  0  0  0  0  0  0  0  0  0  0
    4.9831   -3.8834    1.4087 C   0  0  0  0  0  0  0  0  0  0  0  0
    5.3826   -5.0550    0.8851 C   0  0  0  0  0  0  0  0  0  0  0  0
    5.0066   -6.3953    1.4745 C   0  0  0  0  0  0  0  0  0  0  0  0
    4.4136   -6.3373    2.8062 N   0  0  0  0  0  0  0  0  0  0  0  0
    3.4949   -5.2137    2.9506 C   0  0  0  0  0  0  0  0  0  0  0  0
    4.1468   -3.8511    2.6761 C   0  0  0  0  0  0  0  0  0  0  0  0
    1.0760   -4.2770    0.0833 H   0  0  0  0  0  0  0  0  0  0  0  0
    1.0713   -3.0018   -1.1923 H   0  0  0  0  0  0  0  0  0  0  0  0
    0.6425   -2.5720    0.4846 H   0  0  0  0  0  0  0  0  0  0  0  0
    4.4735    0.3323   -0.6564 H   0  0  0  0  0  0  0  0  0  0  0  0
    6.8962    0.8273   -0.4417 H   0  0  0  0  0  0  0  0  0  0  0  0
    8.6023    1.3136    1.0230 H   0  0  0  0  0  0  0  0  0  0  0  0
   11.0354    1.7473    1.2321 H   0  0  0  0  0  0  0  0  0  0  0  0
   15.0385    2.5015    1.5732 H   0  0  0  0  0  0  0  0  0  0  0  0
   16.8797    2.5105    2.4679 H   0  0  0  0  0  0  0  0  0  0  0  0
   17.5291    2.6623    0.8222 H   0  0  0  0  0  0  0  0  0  0  0  0
   18.9152    1.6167    3.3657 H   0  0  0  0  0  0  0  0  0  0  0  0
   19.3082    3.0898    2.4644 H   0  0  0  0  0  0  0  0  0  0  0  0
   19.7463    2.4433   -0.2261 H   0  0  0  0  0  0  0  0  0  0  0  0
   20.9708    1.1766   -0.2207 H   0  0  0  0  0  0  0  0  0  0  0  0
   22.3348    2.4938    1.4167 H   0  0  0  0  0  0  0  0  0  0  0  0
   21.1332    3.7837    1.3954 H   0  0  0  0  0  0  0  0  0  0  0  0
   20.7691    5.2103   -0.5194 H   0  0  0  0  0  0  0  0  0  0  0  0
   21.7043    6.2710   -2.5592 H   0  0  0  0  0  0  0  0  0  0  0  0
   23.7327    5.2832   -3.6470 H   0  0  0  0  0  0  0  0  0  0  0  0
   24.7841    3.2577   -2.6744 H   0  0  0  0  0  0  0  0  0  0  0  0
   24.9136    1.5440   -1.1134 H   0  0  0  0  0  0  0  0  0  0  0  0
   23.3797    0.9766   -0.4220 H   0  0  0  0  0  0  0  0  0  0  0  0
   24.4413    2.0217    0.5313 H   0  0  0  0  0  0  0  0  0  0  0  0
   19.4096   -0.5594    2.3840 H   0  0  0  0  0  0  0  0  0  0  0  0
   20.1828   -0.6392    0.7863 H   0  0  0  0  0  0  0  0  0  0  0  0
   17.7526   -1.1933    0.7444 H   0  0  0  0  0  0  0  0  0  0  0  0
   18.1340    0.1752   -0.3182 H   0  0  0  0  0  0  0  0  0  0  0  0
   15.8631   -1.7036    0.8938 H   0  0  0  0  0  0  0  0  0  0  0  0
   11.8585   -2.4044    0.5129 H   0  0  0  0  0  0  0  0  0  0  0  0
    9.4312   -2.8572    0.2773 H   0  0  0  0  0  0  0  0  0  0  0  0
    7.4487   -3.0187    1.4286 H   0  0  0  0  0  0  0  0  0  0  0  0
    5.9724   -5.0631   -0.0388 H   0  0  0  0  0  0  0  0  0  0  0  0
    5.8926   -7.0531    1.5115 H   0  0  0  0  0  0  0  0  0  0  0  0
    4.3021   -6.9030    0.7833 H   0  0  0  0  0  0  0  0  0  0  0  0
    5.1559   -6.2539    3.5007 H   0  0  0  0  0  0  0  0  0  0  0  0
    3.0536   -5.2362    3.9607 H   0  0  0  0  0  0  0  0  0  0  0  0
    2.6639   -5.3622    2.2381 H   0  0  0  0  0  0  0  0  0  0  0  0
    4.7976   -3.5611    3.5243 H   0  0  0  0  0  0  0  0  0  0  0  0
    3.3801   -3.0634    2.6063 H   0  0  0  0  0  0  0  0  0  0  0  0
  1  2  1  0
  1 44  1  0
  1 45  1  0
  1 46  1  0
  2  3  1  0
  3  4  2  0
  3  5  1  0
  5  6  2  0
  5 37  1  0
  6  7  1  0
  6 47  1  0
  7  8  2  0
  7 48  1  0
  8  9  1  0
  8 36  1  0
  9 10  2  0
  9 35  1  0
 10 11  1  0
 10 49  1  0
 11 12  2  0
 11 50  1  0
 12 13  1  0
 12 34  1  0
 13 14  2  0
 13 33  1  0
 14 15  1  0
 15 16  2  0
 15 51  1  0
 16 17  1  0
 16 32  1  0
 17 18  1  0
 17 31  1  0
 18 19  1  0
 18 52  1  0
 18 53  1  0
 19 20  1  0
 19 54  1  0
 19 55  1  0
 20 21  1  0
 20 30  1  0
 21 22  1  0
 21 56  1  0
 21 57  1  0
 22 23  1  0
 22 58  1  0
 22 59  1  0
 23 24  2  0
 23 28  1  0
 24 25  1  0
 24 60  1  0
 25 26  2  0
 25 61  1  0
 26 27  1  0
 26 62  1  0
 27 28  2  0
 27 63  1  0
 28 29  1  0
 29 64  1  0
 29 65  1  0
 29 66  1  0
 30 31  1  0
 30 67  1  0
 30 68  1  0
 31 69  1  0
 31 70  1  0
 32 33  2  0
 32 71  1  0
 34 35  2  0
 34 72  1  0
 35 73  1  0
 36 37  2  0
 36 74  1  0
 37 38  1  0
 38 39  2  0
 38 43  1  0
 39 40  1  0
 39 75  1  0
 40 41  1  0
 40 76  1  0
 40 77  1  0
 41 42  1  0
 41 78  1  0
 42 43  1  0
 42 79  1  0
 42 80  1  0
 43 81  1  0
 43 82  1  0
M  END

