
     RDKit          3D

 30 30  0  0  0  0  0  0  0  0999 V2000
    1.0303    0.2871   -0.6453 C   0  0  0  0  0  0  0  0  0  0  0  0
    2.4852    0.2194   -0.1767 C   0  0  0  0  0  0  0  0  0  0  0  0
    2.9426   -1.2071    0.1453 C   0  0  0  0  0  0  0  0  0  0  0  0
    4.4348   -1.3454    0.5087 C   0  0  1  0  0  0  0  0  0  0  0  0
    4.8255   -0.6155    1.7957 C   0  0  0  0  0  0  0  0  0  0  0  0
    4.8060   -2.7537    0.6456 N   0  0  0  0  0  0  0  0  0  0  0  0
    5.1806   -3.5538   -0.3704 C   0  0  0  0  0  0  0  0  0  0  0  0
    5.2452   -3.0072   -1.6069 N   0  0  0  0  0  0  0  0  0  0  0  0
    5.6236   -3.7417   -2.6395 C   0  0  0  0  0  0  0  0  0  0  0  0
    5.9724   -5.0999   -2.5607 C   0  0  0  0  0  0  0  0  0  0  0  0
    5.9130   -5.6969   -1.3099 C   0  0  0  0  0  0  0  0  0  0  0  0
    5.5193   -4.9423   -0.2003 C   0  0  0  0  0  0  0  0  0  0  0  0
    5.4731   -5.6146    1.0865 N   0  0  0  0  0  0  0  0  0  0  0  0
    5.1217   -4.9660    2.0784 O   0  0  0  0  0  0  0  0  0  0  0  0
    5.7819   -6.7952    1.1390 O   0  0  0  0  0  0  0  0  0  0  0  0
    0.7265    1.3218   -0.8707 H   0  0  0  0  0  0  0  0  0  0  0  0
    0.3429   -0.1011    0.1248 H   0  0  0  0  0  0  0  0  0  0  0  0
    0.8747   -0.3127   -1.5575 H   0  0  0  0  0  0  0  0  0  0  0  0
    2.6095    0.8672    0.7083 H   0  0  0  0  0  0  0  0  0  0  0  0
    3.1435    0.6422   -0.9575 H   0  0  0  0  0  0  0  0  0  0  0  0
    2.7561   -1.8471   -0.7334 H   0  0  0  0  0  0  0  0  0  0  0  0
    2.3329   -1.6211    0.9701 H   0  0  0  0  0  0  0  0  0  0  0  0
    5.0223   -0.9453   -0.3316 H   0  0  0  0  0  0  0  0  0  0  0  0
    4.2512   -0.9948    2.6586 H   0  0  0  0  0  0  0  0  0  0  0  0
    4.6299    0.4632    1.7133 H   0  0  0  0  0  0  0  0  0  0  0  0
    5.8966   -0.7498    2.0117 H   0  0  0  0  0  0  0  0  0  0  0  0
    4.7416   -3.2142    1.5514 H   0  0  0  0  0  0  0  0  0  0  0  0
    5.6541   -3.2265   -3.6080 H   0  0  0  0  0  0  0  0  0  0  0  0
    6.2739   -5.6574   -3.4482 H   0  0  0  0  0  0  0  0  0  0  0  0
    6.1640   -6.7457   -1.1504 H   0  0  0  0  0  0  0  0  0  0  0  0
  1  2  1  0
  1 16  1  0
  1 17  1  0
  1 18  1  0
  2  3  1  0
  2 19  1  0
  2 20  1  0
  3  4  1  0
  3 21  1  0
  3 22  1  0
  4  5  1  0
  4  6  1  0
  4 23  1  6
  5 24  1  0
  5 25  1  0
  5 26  1  0
  6  7  1  0
  6 27  1  0
  7  8  2  0
  7 12  1  0
  8  9  1  0
  9 10  2  0
  9 28  1  0
 10 11  1  0
 10 29  1  0
 11 12  2  0
 11 30  1  0
 12 13  1  0
 13 14  2  0
 13 15  1  0
M  CHG  2  13   1  15  -1
M  END

