
     RDKit          3D

 32 31  0  0  0  0  0  0  0  0999 V2000
    4.7095   -1.2406    3.4044 N   0  0  0  0  0  0  0  0  0  0  0  0
    4.2381    0.0231    2.8277 C   0  0  0  0  0  0  0  0  0  0  0  0
    4.8657    0.2291    1.4356 C   0  0  1  0  0  0  0  0  0  0  0  0
    4.6246   -0.9055    0.5380 N   0  0  0  0  0  0  0  0  0  0  0  0
    4.4103    1.5138    0.7227 C   0  0  0  0  0  0  0  0  0  0  0  0
    4.9368    2.9004    1.1794 C   0  0  1  0  0  0  0  0  0  0  0  0
    4.4789    3.9506    0.2402 N   0  0  0  0  0  0  0  0  0  0  0  0
    4.4241    3.1832    2.5194 N   0  0  0  0  0  0  0  0  0  0  0  0
    6.4872    2.9181    1.2037 C   0  0  0  0  0  0  0  0  0  0  0  0
    7.1877    4.2881    1.0800 C   0  0  1  0  0  0  0  0  0  0  0  0
    6.7561    5.3368    2.0092 N   0  0  0  0  0  0  0  0  0  0  0  0
    8.6211    4.0509    1.1400 N   0  0  0  0  0  0  0  0  0  0  0  0
    4.1527   -1.4924    4.2205 H   0  0  0  0  0  0  0  0  0  0  0  0
    5.6670   -1.1323    3.7435 H   0  0  0  0  0  0  0  0  0  0  0  0
    4.4287    0.9132    3.4541 H   0  0  0  0  0  0  0  0  0  0  0  0
    3.1417   -0.0521    2.7001 H   0  0  0  0  0  0  0  0  0  0  0  0
    5.9616    0.2855    1.5776 H   0  0  0  0  0  0  0  0  0  0  0  0
    3.6296   -0.9268    0.2971 H   0  0  0  0  0  0  0  0  0  0  0  0
    4.7776   -1.7555    1.0869 H   0  0  0  0  0  0  0  0  0  0  0  0
    3.3017    1.5561    0.7378 H   0  0  0  0  0  0  0  0  0  0  0  0
    4.6938    1.3904   -0.3349 H   0  0  0  0  0  0  0  0  0  0  0  0
    3.4651    3.8835    0.1272 H   0  0  0  0  0  0  0  0  0  0  0  0
    4.8689    3.7912   -0.6916 H   0  0  0  0  0  0  0  0  0  0  0  0
    3.4027    3.1590    2.5155 H   0  0  0  0  0  0  0  0  0  0  0  0
    4.6884    4.1320    2.7811 H   0  0  0  0  0  0  0  0  0  0  0  0
    6.8737    2.2896    0.3852 H   0  0  0  0  0  0  0  0  0  0  0  0
    6.8091    2.4376    2.1432 H   0  0  0  0  0  0  0  0  0  0  0  0
    6.9710    4.6914    0.0769 H   0  0  0  0  0  0  0  0  0  0  0  0
    6.7564    5.0047    2.9757 H   0  0  0  0  0  0  0  0  0  0  0  0
    5.8110    5.6420    1.7738 H   0  0  0  0  0  0  0  0  0  0  0  0
    8.8658    3.6275    2.0380 H   0  0  0  0  0  0  0  0  0  0  0  0
    9.1010    4.9518    1.1163 H   0  0  0  0  0  0  0  0  0  0  0  0
  1  2  1  0
  1 13  1  0
  1 14  1  0
  2  3  1  0
  2 15  1  0
  2 16  1  0
  3  4  1  0
  3  5  1  0
  3 17  1  1
  4 18  1  0
  4 19  1  0
  5  6  1  0
  5 20  1  0
  5 21  1  0
  6  7  1  6
  6  8  1  0
  6  9  1  0
  7 22  1  0
  7 23  1  0
  8 24  1  0
  8 25  1  0
  9 10  1  0
  9 26  1  0
  9 27  1  0
 10 11  1  0
 10 12  1  0
 10 28  1  6
 11 29  1  0
 11 30  1  0
 12 31  1  0
 12 32  1  0
M  END

