
     RDKit          3D

 71 73  0  0  0  0  0  0  0  0999 V2000
   -0.5943    2.3553    2.4904 C   0  0  0  0  0  0  0  0  0  0  0  0
    0.8286    2.7766    2.1210 C   0  0  0  0  0  0  0  0  0  0  0  0
    1.9060    2.1215    2.9908 C   0  0  0  0  0  0  0  0  0  0  0  0
    3.3339    2.5394    2.6272 C   0  0  0  0  0  0  0  0  0  0  0  0
    4.4037    1.8795    3.5010 C   0  0  0  0  0  0  0  0  0  0  0  0
    5.8165    2.3036    3.1317 C   0  0  0  0  0  0  0  0  0  0  0  0
    6.7215    1.6357    3.9973 O   0  0  0  0  0  0  0  0  0  0  0  0
    8.0533    1.8496    3.8815 C   0  0  0  0  0  0  0  0  0  0  0  0
    8.6475    2.7011    2.9366 C   0  0  0  0  0  0  0  0  0  0  0  0
   10.0373    2.8462    2.9076 C   0  0  0  0  0  0  0  0  0  0  0  0
   10.8738    2.1620    3.8050 C   0  0  0  0  0  0  0  0  0  0  0  0
   12.3425    2.3254    3.7654 C   0  0  0  0  0  0  0  0  0  0  0  0
   12.9715    3.5417    3.4389 C   0  0  0  0  0  0  0  0  0  0  0  0
   14.2886    3.6936    3.3964 N   0  0  0  0  0  0  0  0  0  0  0  0
   15.0526    2.6272    3.6924 C   0  0  0  0  0  0  0  0  0  0  0  0
   16.5231    2.7905    3.6533 C   0  0  0  0  0  0  0  0  0  0  0  0
   17.1011    4.0261    3.3250 C   0  0  0  0  0  0  0  0  0  0  0  0
   18.4865    4.1920    3.2864 C   0  0  0  0  0  0  0  0  0  0  0  0
   19.3264    3.1051    3.5808 C   0  0  0  0  0  0  0  0  0  0  0  0
   20.6812    3.1592    3.5772 O   0  0  0  0  0  0  0  0  0  0  0  0
   21.3373    4.3681    3.2564 C   0  0  0  0  0  0  0  0  0  0  0  0
   22.8346    4.1216    3.2738 C   0  0  1  0  0  0  0  0  0  0  0  0
   23.1505    3.3074    2.1916 F   0  0  0  0  0  0  0  0  0  0  0  0
   23.6711    5.3943    3.1799 C   0  0  0  0  0  0  0  0  0  0  0  0
   23.7020    6.2468    4.4524 C   0  0  0  0  0  0  0  0  0  0  0  0
   24.6202    7.4678    4.3393 C   0  0  0  0  0  0  0  0  0  0  0  0
   24.6625    8.3278    5.6061 C   0  0  0  0  0  0  0  0  0  0  0  0
   25.5816    9.5443    5.4878 C   0  0  0  0  0  0  0  0  0  0  0  0
   18.7573    1.8604    3.9099 C   0  0  0  0  0  0  0  0  0  0  0  0
   17.3786    1.7084    3.9452 C   0  0  0  0  0  0  0  0  0  0  0  0
   14.5585    1.4214    4.0228 N   0  0  0  0  0  0  0  0  0  0  0  0
   13.2397    1.2794    4.0519 C   0  0  0  0  0  0  0  0  0  0  0  0
   10.2560    1.3111    4.7470 C   0  0  0  0  0  0  0  0  0  0  0  0
    8.8766    1.1552    4.7869 C   0  0  0  0  0  0  0  0  0  0  0  0
   -1.3418    2.8446    1.8458 H   0  0  0  0  0  0  0  0  0  0  0  0
   -0.8323    2.6188    3.5347 H   0  0  0  0  0  0  0  0  0  0  0  0
   -0.7294    1.2654    2.3879 H   0  0  0  0  0  0  0  0  0  0  0  0
    0.9197    3.8756    2.1973 H   0  0  0  0  0  0  0  0  0  0  0  0
    1.0218    2.5337    1.0601 H   0  0  0  0  0  0  0  0  0  0  0  0
    1.8179    1.0217    2.9148 H   0  0  0  0  0  0  0  0  0  0  0  0
    1.7151    2.3637    4.0528 H   0  0  0  0  0  0  0  0  0  0  0  0
    3.4209    3.6392    2.7043 H   0  0  0  0  0  0  0  0  0  0  0  0
    3.5236    2.2969    1.5649 H   0  0  0  0  0  0  0  0  0  0  0  0
    4.3363    0.7808    3.4211 H   0  0  0  0  0  0  0  0  0  0  0  0
    4.2317    2.1238    4.5635 H   0  0  0  0  0  0  0  0  0  0  0  0
    5.9331    3.3998    3.2333 H   0  0  0  0  0  0  0  0  0  0  0  0
    6.0375    2.0448    2.0783 H   0  0  0  0  0  0  0  0  0  0  0  0
    8.0420    3.2466    2.2130 H   0  0  0  0  0  0  0  0  0  0  0  0
   10.4771    3.4938    2.1452 H   0  0  0  0  0  0  0  0  0  0  0  0
   12.3690    4.4323    3.2209 H   0  0  0  0  0  0  0  0  0  0  0  0
   16.4417    4.8652    3.0982 H   0  0  0  0  0  0  0  0  0  0  0  0
   18.8983    5.1673    3.0266 H   0  0  0  0  0  0  0  0  0  0  0  0
   21.0740    5.1565    3.9853 H   0  0  0  0  0  0  0  0  0  0  0  0
   21.0478    4.7197    2.2486 H   0  0  0  0  0  0  0  0  0  0  0  0
   23.0889    3.5591    4.1904 H   0  0  0  0  0  0  0  0  0  0  0  0
   23.3181    5.9953    2.3225 H   0  0  0  0  0  0  0  0  0  0  0  0
   24.6950    5.0730    2.9256 H   0  0  0  0  0  0  0  0  0  0  0  0
   24.0311    5.6215    5.3027 H   0  0  0  0  0  0  0  0  0  0  0  0
   22.6832    6.5893    4.7089 H   0  0  0  0  0  0  0  0  0  0  0  0
   24.2954    8.0909    3.4853 H   0  0  0  0  0  0  0  0  0  0  0  0
   25.6440    7.1313    4.0911 H   0  0  0  0  0  0  0  0  0  0  0  0
   24.9854    7.7024    6.4582 H   0  0  0  0  0  0  0  0  0  0  0  0
   23.6379    8.6618    5.8521 H   0  0  0  0  0  0  0  0  0  0  0  0
   26.6219    9.2423    5.2801 H   0  0  0  0  0  0  0  0  0  0  0  0
   25.5873   10.1388    6.4152 H   0  0  0  0  0  0  0  0  0  0  0  0
   25.2629   10.2099    4.6680 H   0  0  0  0  0  0  0  0  0  0  0  0
   19.4277    1.0280    4.1328 H   0  0  0  0  0  0  0  0  0  0  0  0
   16.9333    0.7456    4.1996 H   0  0  0  0  0  0  0  0  0  0  0  0
   12.8608    0.2798    4.2983 H   0  0  0  0  0  0  0  0  0  0  0  0
   10.8680    0.7795    5.4795 H   0  0  0  0  0  0  0  0  0  0  0  0
    8.4017    0.5036    5.5232 H   0  0  0  0  0  0  0  0  0  0  0  0
  1  2  1  0
  1 35  1  0
  1 36  1  0
  1 37  1  0
  2  3  1  0
  2 38  1  0
  2 39  1  0
  3  4  1  0
  3 40  1  0
  3 41  1  0
  4  5  1  0
  4 42  1  0
  4 43  1  0
  5  6  1  0
  5 44  1  0
  5 45  1  0
  6  7  1  0
  6 46  1  0
  6 47  1  0
  7  8  1  0
  8  9  2  0
  8 34  1  0
  9 10  1  0
  9 48  1  0
 10 11  2  0
 10 49  1  0
 11 12  1  0
 11 33  1  0
 12 13  2  0
 12 32  1  0
 13 14  1  0
 13 50  1  0
 14 15  2  0
 15 16  1  0
 15 31  1  0
 16 17  2  0
 16 30  1  0
 17 18  1  0
 17 51  1  0
 18 19  2  0
 18 52  1  0
 19 20  1  0
 19 29  1  0
 20 21  1  0
 21 22  1  0
 21 53  1  0
 21 54  1  0
 22 23  1  0
 22 24  1  0
 22 55  1  1
 24 25  1  0
 24 56  1  0
 24 57  1  0
 25 26  1  0
 25 58  1  0
 25 59  1  0
 26 27  1  0
 26 60  1  0
 26 61  1  0
 27 28  1  0
 27 62  1  0
 27 63  1  0
 28 64  1  0
 28 65  1  0
 28 66  1  0
 29 30  2  0
 29 67  1  0
 30 68  1  0
 31 32  2  0
 32 69  1  0
 33 34  2  0
 33 70  1  0
 34 71  1  0
M  END

