
     RDKit          3D

 32 34  0  0  0  0  0  0  0  0999 V2000
    0.7347   -0.1832    0.3149 C   0  0  0  0  0  0  0  0  0  0  0  0
    2.0982   -0.4266    0.0456 O   0  0  0  0  0  0  0  0  0  0  0  0
    2.7952   -1.2706    0.8427 C   0  0  0  0  0  0  0  0  0  0  0  0
    4.1414   -1.4804    0.4960 C   0  0  0  0  0  0  0  0  0  0  0  0
    4.9334   -2.3347    1.2563 C   0  0  0  0  0  0  0  0  0  0  0  0
    4.4116   -2.9930    2.3801 C   0  0  0  0  0  0  0  0  0  0  0  0
    5.2679   -3.9218    3.2009 C   0  0  1  0  0  0  0  0  0  0  0  0
    6.2910   -3.9580    2.7686 H   0  0  0  0  0  0  0  0  0  0  0  0
    5.3176   -3.5198    4.5913 N   0  0  0  0  0  0  0  0  0  0  0  0
    5.9993   -4.3675    5.4428 C   0  0  0  0  0  0  0  0  0  0  0  0
    6.5997   -3.9406    6.6423 C   0  0  0  0  0  0  0  0  0  0  0  0
    7.2646   -4.8603    7.4496 C   0  0  0  0  0  0  0  0  0  0  0  0
    7.3452   -6.2155    7.0910 C   0  0  0  0  0  0  0  0  0  0  0  0
    6.7359   -6.6457    5.9159 C   0  0  0  0  0  0  0  0  0  0  0  0
    6.0645   -5.7356    5.0858 C   0  0  0  0  0  0  0  0  0  0  0  0
    5.3041   -6.2231    3.9063 C   0  0  0  0  0  0  0  0  0  0  0  0
    5.1120   -7.3815    3.6421 O   0  0  0  0  0  0  0  0  0  0  0  0
    4.7398   -5.2516    3.1227 O   0  0  0  0  0  0  0  0  0  0  0  0
    3.0702   -2.7803    2.7189 C   0  0  0  0  0  0  0  0  0  0  0  0
    2.2606   -1.9287    1.9640 C   0  0  0  0  0  0  0  0  0  0  0  0
    0.3835    0.5138   -0.4577 H   0  0  0  0  0  0  0  0  0  0  0  0
    0.5877    0.2799    1.3071 H   0  0  0  0  0  0  0  0  0  0  0  0
    0.1338   -1.1087    0.2612 H   0  0  0  0  0  0  0  0  0  0  0  0
    4.5386   -0.9638   -0.3798 H   0  0  0  0  0  0  0  0  0  0  0  0
    5.9765   -2.4955    0.9692 H   0  0  0  0  0  0  0  0  0  0  0  0
    5.3774   -2.5230    4.7635 H   0  0  0  0  0  0  0  0  0  0  0  0
    6.5472   -2.8869    6.9290 H   0  0  0  0  0  0  0  0  0  0  0  0
    7.7338   -4.5147    8.3747 H   0  0  0  0  0  0  0  0  0  0  0  0
    7.8706   -6.9246    7.7339 H   0  0  0  0  0  0  0  0  0  0  0  0
    6.7486   -7.6957    5.6164 H   0  0  0  0  0  0  0  0  0  0  0  0
    2.6490   -3.2957    3.5850 H   0  0  0  0  0  0  0  0  0  0  0  0
    1.2189   -1.7889    2.2530 H   0  0  0  0  0  0  0  0  0  0  0  0
  1  2  1  0
  1 21  1  0
  1 22  1  0
  1 23  1  0
  2  3  1  0
  3  4  2  0
  3 20  1  0
  4  5  1  0
  4 24  1  0
  5  6  2  0
  5 25  1  0
  6  7  1  0
  6 19  1  0
  7  8  1  6
  7  9  1  0
  7 18  1  0
  9 10  1  0
  9 26  1  0
 10 11  2  0
 10 15  1  0
 11 12  1  0
 11 27  1  0
 12 13  2  0
 12 28  1  0
 13 14  1  0
 13 29  1  0
 14 15  2  0
 14 30  1  0
 15 16  1  0
 16 17  2  0
 16 18  1  0
 19 20  2  0
 19 31  1  0
 20 32  1  0
M  END

