
     RDKit          3D

 32 34  0  0  0  0  0  0  0  0999 V2000
    0.9257    0.0084    0.1577 O   0  0  0  0  0  0  0  0  0  0  0  0
    2.0776    0.0588   -0.1910 C   0  0  0  0  0  0  0  0  0  0  0  0
    2.7836    1.1755   -0.6206 N   0  0  0  0  0  0  0  0  0  0  0  0
    4.0830    0.8624   -0.9789 C   0  0  0  0  0  0  0  0  0  0  0  0
    5.0777    1.6509   -1.4545 C   0  0  0  0  0  0  0  0  0  0  0  0
    5.0080    3.0596   -1.7060 C   0  0  0  0  0  0  0  0  0  0  0  0
    5.9320    3.9655   -2.1802 C   0  0  0  0  0  0  0  0  0  0  0  0
    5.2761    5.2326   -2.2151 C   0  0  0  0  0  0  0  0  0  0  0  0
    6.0291    6.8547   -2.7733 Br  0  0  0  0  0  0  0  0  0  0  0  0
    3.9945    5.0257   -1.7620 C   0  0  0  0  0  0  0  0  0  0  0  0
    2.3826    6.3034   -1.4913 I   0  0  0  0  0  0  0  0  0  0  0  0
    3.8251    3.7155   -1.4525 O   0  0  0  0  0  0  0  0  0  0  0  0
    4.2260   -0.6087   -0.7409 C   0  0  0  0  0  0  0  0  0  0  0  0
    5.2006   -1.3087   -0.9214 O   0  0  0  0  0  0  0  0  0  0  0  0
    2.9875   -1.0154   -0.2619 N   0  0  0  0  0  0  0  0  0  0  0  0
    2.6438   -2.3903    0.0894 C   0  0  0  0  0  0  0  0  0  0  0  0
    2.9567   -2.7578    1.5297 C   0  0  0  0  0  0  0  0  0  0  0  0
    4.2974   -2.8280    1.9500 C   0  0  0  0  0  0  0  0  0  0  0  0
    4.6353   -3.1557    3.2627 C   0  0  0  0  0  0  0  0  0  0  0  0
    3.6264   -3.4314    4.1907 C   0  0  0  0  0  0  0  0  0  0  0  0
    2.2891   -3.3822    3.7991 C   0  0  0  0  0  0  0  0  0  0  0  0
    1.9608   -3.0483    2.4793 C   0  0  0  0  0  0  0  0  0  0  0  0
    0.2606   -3.0235    2.0502 Cl  0  0  0  0  0  0  0  0  0  0  0  0
    2.3647    2.0961   -0.6763 H   0  0  0  0  0  0  0  0  0  0  0  0
    6.0262    1.1530   -1.6653 H   0  0  0  0  0  0  0  0  0  0  0  0
    6.9583    3.7546   -2.4700 H   0  0  0  0  0  0  0  0  0  0  0  0
    3.2206   -3.0371   -0.5882 H   0  0  0  0  0  0  0  0  0  0  0  0
    1.5752   -2.5213   -0.1163 H   0  0  0  0  0  0  0  0  0  0  0  0
    5.0812   -2.6190    1.2176 H   0  0  0  0  0  0  0  0  0  0  0  0
    5.6857   -3.2014    3.5594 H   0  0  0  0  0  0  0  0  0  0  0  0
    3.8775   -3.6914    5.2221 H   0  0  0  0  0  0  0  0  0  0  0  0
    1.4879   -3.6008    4.5067 H   0  0  0  0  0  0  0  0  0  0  0  0
  1  2  2  0
  2  3  1  0
  2 15  1  0
  3  4  1  0
  3 24  1  0
  4  5  2  0
  4 13  1  0
  5  6  1  0
  5 25  1  0
  6  7  2  0
  6 12  1  0
  7  8  1  0
  7 26  1  0
  8  9  1  0
  8 10  2  0
 10 11  1  0
 10 12  1  0
 13 14  2  0
 13 15  1  0
 15 16  1  0
 16 17  1  0
 16 27  1  0
 16 28  1  0
 17 18  2  0
 17 22  1  0
 18 19  1  0
 18 29  1  0
 19 20  2  0
 19 30  1  0
 20 21  1  0
 20 31  1  0
 21 22  2  0
 21 32  1  0
 22 23  1  0
M  END

