
     RDKit          3D

 42 43  0  0  0  0  0  0  0  0999 V2000
    1.8759   -0.9404    0.1948 C   0  0  0  0  0  0  0  0  0  0  0  0
    2.8319    0.2004    0.5769 C   0  0  0  0  0  0  0  0  0  0  0  0
    2.9980    1.2353   -0.5153 C   0  0  0  0  0  0  0  0  0  0  0  0
    2.1457    2.3467   -0.5993 C   0  0  0  0  0  0  0  0  0  0  0  0
    2.2734    3.2779   -1.6329 C   0  0  0  0  0  0  0  0  0  0  0  0
    3.2611    3.1380   -2.6179 C   0  0  0  0  0  0  0  0  0  0  0  0
    3.4227    4.2103   -3.6977 C   0  0  1  0  0  0  0  0  0  0  0  0
    4.3924    5.3122   -3.2059 C   0  0  0  0  0  0  0  0  0  0  0  0
    5.8528    4.9117   -2.9866 C   0  0  0  0  0  0  0  0  0  0  0  0
    6.6167    5.9823   -2.4623 O   0  0  0  0  0  0  0  0  0  0  0  0
    3.8255    3.6086   -4.9787 N   0  0  0  0  0  0  0  0  0  0  0  0
    2.8466    2.6670   -5.5373 C   0  0  0  0  0  0  0  0  0  0  0  0
    1.6878    3.3578   -6.2695 C   0  0  0  0  0  0  0  0  0  0  0  0
    2.2233    4.2266   -7.3115 N   0  0  0  0  0  0  0  0  0  0  0  0
    3.1468    5.2207   -6.7797 C   0  0  0  0  0  0  0  0  0  0  0  0
    4.2851    4.4987   -6.0461 C   0  0  0  0  0  0  0  0  0  0  0  0
    4.1128    2.0255   -2.5392 C   0  0  0  0  0  0  0  0  0  0  0  0
    3.9813    1.0936   -1.5075 C   0  0  0  0  0  0  0  0  0  0  0  0
    1.7825   -1.6719    1.0140 H   0  0  0  0  0  0  0  0  0  0  0  0
    2.2339   -1.4761   -0.6992 H   0  0  0  0  0  0  0  0  0  0  0  0
    0.8688   -0.5552   -0.0327 H   0  0  0  0  0  0  0  0  0  0  0  0
    3.8185   -0.2233    0.8306 H   0  0  0  0  0  0  0  0  0  0  0  0
    2.4620    0.6922    1.4925 H   0  0  0  0  0  0  0  0  0  0  0  0
    1.3669    2.4865    0.1568 H   0  0  0  0  0  0  0  0  0  0  0  0
    1.5910    4.1329   -1.6729 H   0  0  0  0  0  0  0  0  0  0  0  0
    2.4351    4.7148   -3.7768 H   0  0  0  0  0  0  0  0  0  0  0  0
    4.0031    5.6915   -2.2477 H   0  0  0  0  0  0  0  0  0  0  0  0
    4.3562    6.1706   -3.9013 H   0  0  0  0  0  0  0  0  0  0  0  0
    6.2949    4.5144   -3.9210 H   0  0  0  0  0  0  0  0  0  0  0  0
    5.9134    4.1032   -2.2433 H   0  0  0  0  0  0  0  0  0  0  0  0
    6.6189    6.6961   -3.1133 H   0  0  0  0  0  0  0  0  0  0  0  0
    2.4584    2.0196   -4.7388 H   0  0  0  0  0  0  0  0  0  0  0  0
    3.3728    2.0212   -6.2625 H   0  0  0  0  0  0  0  0  0  0  0  0
    1.0578    3.9054   -5.5307 H   0  0  0  0  0  0  0  0  0  0  0  0
    1.0421    2.5921   -6.7310 H   0  0  0  0  0  0  0  0  0  0  0  0
    1.4721    4.6712   -7.8349 H   0  0  0  0  0  0  0  0  0  0  0  0
    2.6580    5.9430   -6.0839 H   0  0  0  0  0  0  0  0  0  0  0  0
    3.5640    5.8115   -7.6128 H   0  0  0  0  0  0  0  0  0  0  0  0
    5.0129    5.2248   -5.6612 H   0  0  0  0  0  0  0  0  0  0  0  0
    4.8168    3.8750   -6.7866 H   0  0  0  0  0  0  0  0  0  0  0  0
    4.8770    1.8917   -3.3080 H   0  0  0  0  0  0  0  0  0  0  0  0
    4.6618    0.2372   -1.4697 H   0  0  0  0  0  0  0  0  0  0  0  0
  1  2  1  0
  1 19  1  0
  1 20  1  0
  1 21  1  0
  2  3  1  0
  2 22  1  0
  2 23  1  0
  3  4  2  0
  3 18  1  0
  4  5  1  0
  4 24  1  0
  5  6  2  0
  5 25  1  0
  6  7  1  0
  6 17  1  0
  7  8  1  0
  7 11  1  0
  7 26  1  6
  8  9  1  0
  8 27  1  0
  8 28  1  0
  9 10  1  0
  9 29  1  0
  9 30  1  0
 10 31  1  0
 11 12  1  0
 11 16  1  0
 12 13  1  0
 12 32  1  0
 12 33  1  0
 13 14  1  0
 13 34  1  0
 13 35  1  0
 14 15  1  0
 14 36  1  0
 15 16  1  0
 15 37  1  0
 15 38  1  0
 16 39  1  0
 16 40  1  0
 17 18  2  0
 17 41  1  0
 18 42  1  0
M  END

