
     RDKit          3D

 47 48  0  0  0  0  0  0  0  0999 V2000
    1.0869   -5.4516    3.0173 C   0  0  0  0  0  0  0  0  0  0  0  0
    2.3021   -4.8329    2.3528 C   0  0  0  0  0  0  0  0  0  0  0  0
    3.4466   -5.1891    3.1074 O   0  0  0  0  0  0  0  0  0  0  0  0
    4.6742   -4.7593    2.7085 C   0  0  0  0  0  0  0  0  0  0  0  0
    4.9181   -3.9585    1.5879 C   0  0  0  0  0  0  0  0  0  0  0  0
    6.2280   -3.5688    1.2619 C   0  0  0  0  0  0  0  0  0  0  0  0
    7.3051   -3.9778    2.0529 C   0  0  0  0  0  0  0  0  0  0  0  0
    8.6116   -3.6554    1.8180 O   0  0  0  0  0  0  0  0  0  0  0  0
    8.9407   -2.8270    0.7192 C   0  0  0  0  0  0  0  0  0  0  0  0
   10.4522   -2.6480    0.6999 C   0  0  0  0  0  0  0  0  0  0  0  0
   11.2317   -3.9524    0.4905 C   0  0  0  0  0  0  0  0  0  0  0  0
   11.0815   -4.5062   -0.8628 N   0  0  0  0  0  0  0  0  0  0  0  0
   11.9952   -3.9100   -1.8590 C   0  0  0  0  0  0  0  0  0  0  0  0
   13.4051   -4.5155   -1.8565 C   0  0  0  0  0  0  0  0  0  0  0  0
   13.3341   -6.0348   -2.0484 C   0  0  0  0  0  0  0  0  0  0  0  0
   12.4188   -6.6661   -0.9938 C   0  0  0  0  0  0  0  0  0  0  0  0
   11.0457   -5.9782   -0.9493 C   0  0  2  0  0  0  0  0  0  0  0  0
   10.1427   -6.3972   -2.1364 C   0  0  0  0  0  0  0  0  0  0  0  0
   10.1890   -7.4772   -2.6636 O   0  0  0  0  0  0  0  0  0  0  0  0
    9.2674   -5.4460   -2.4795 O   0  0  0  0  0  0  0  0  0  0  0  0
    7.0568   -4.7816    3.1812 C   0  0  0  0  0  0  0  0  0  0  0  0
    5.7636   -5.1660    3.5032 C   0  0  0  0  0  0  0  0  0  0  0  0
    0.1737   -5.1957    2.4578 H   0  0  0  0  0  0  0  0  0  0  0  0
    0.9788   -5.0835    4.0491 H   0  0  0  0  0  0  0  0  0  0  0  0
    1.1794   -6.5479    3.0518 H   0  0  0  0  0  0  0  0  0  0  0  0
    2.2042   -3.7308    2.3078 H   0  0  0  0  0  0  0  0  0  0  0  0
    2.4054   -5.1952    1.3117 H   0  0  0  0  0  0  0  0  0  0  0  0
    4.1017   -3.6239    0.9478 H   0  0  0  0  0  0  0  0  0  0  0  0
    6.3812   -2.9466    0.3800 H   0  0  0  0  0  0  0  0  0  0  0  0
    8.4394   -1.8452    0.8145 H   0  0  0  0  0  0  0  0  0  0  0  0
    8.5898   -3.2866   -0.2243 H   0  0  0  0  0  0  0  0  0  0  0  0
   10.7629   -2.2033    1.6603 H   0  0  0  0  0  0  0  0  0  0  0  0
   10.7087   -1.9140   -0.0827 H   0  0  0  0  0  0  0  0  0  0  0  0
   10.8538   -4.6917    1.2118 H   0  0  0  0  0  0  0  0  0  0  0  0
   12.2958   -3.7825    0.7453 H   0  0  0  0  0  0  0  0  0  0  0  0
   12.0311   -2.8231   -1.6880 H   0  0  0  0  0  0  0  0  0  0  0  0
   11.5507   -4.0500   -2.8605 H   0  0  0  0  0  0  0  0  0  0  0  0
   13.9159   -4.2815   -0.9051 H   0  0  0  0  0  0  0  0  0  0  0  0
   14.0022   -4.0430   -2.6544 H   0  0  0  0  0  0  0  0  0  0  0  0
   14.3398   -6.4830   -1.9987 H   0  0  0  0  0  0  0  0  0  0  0  0
   12.9402   -6.2614   -3.0552 H   0  0  0  0  0  0  0  0  0  0  0  0
   12.8869   -6.5832    0.0026 H   0  0  0  0  0  0  0  0  0  0  0  0
   12.2632   -7.7358   -1.1962 H   0  0  0  0  0  0  0  0  0  0  0  0
   10.4982   -6.3380   -0.0611 H   0  0  0  0  0  0  0  0  0  0  0  0
    9.5143   -4.6812   -1.9035 H   0  0  0  0  0  0  0  0  0  0  0  0
    7.9042   -5.0940    3.7952 H   0  0  0  0  0  0  0  0  0  0  0  0
    5.5632   -5.7903    4.3763 H   0  0  0  0  0  0  0  0  0  0  0  0
  1  2  1  0
  1 23  1  0
  1 24  1  0
  1 25  1  0
  2  3  1  0
  2 26  1  0
  2 27  1  0
  3  4  1  0
  4  5  2  0
  4 22  1  0
  5  6  1  0
  5 28  1  0
  6  7  2  0
  6 29  1  0
  7  8  1  0
  7 21  1  0
  8  9  1  0
  9 10  1  0
  9 30  1  0
  9 31  1  0
 10 11  1  0
 10 32  1  0
 10 33  1  0
 11 12  1  0
 11 34  1  0
 11 35  1  0
 12 13  1  0
 12 17  1  0
 13 14  1  0
 13 36  1  0
 13 37  1  0
 14 15  1  0
 14 38  1  0
 14 39  1  0
 15 16  1  0
 15 40  1  0
 15 41  1  0
 16 17  1  0
 16 42  1  0
 16 43  1  0
 17 18  1  0
 17 44  1  1
 18 19  2  0
 18 20  1  0
 20 45  1  0
 21 22  2  0
 21 46  1  0
 22 47  1  0
M  END

