
     RDKit          3D

 49 52  0  0  0  0  0  0  0  0999 V2000
    3.0293   -1.3154    0.4722 C   0  0  0  0  0  0  0  0  0  0  0  0
    2.8863   -0.0065   -0.2887 C   0  0  0  0  0  0  0  0  0  0  0  0
    2.0652    0.8352    0.0347 O   0  0  0  0  0  0  0  0  0  0  0  0
    3.7430    0.1651   -1.3584 N   0  0  0  0  0  0  0  0  0  0  0  0
    4.7107   -0.8509   -1.8250 C   0  0  0  0  0  0  0  0  0  0  0  0
    5.5437   -0.1475   -2.9219 C   0  0  0  0  0  0  0  0  0  0  0  0
    4.7787    1.1292   -3.1838 C   0  0  0  0  0  0  0  0  0  0  0  0
    4.9844    2.0943   -4.1590 C   0  0  0  0  0  0  0  0  0  0  0  0
    4.1634    3.2414   -4.1919 C   0  0  0  0  0  0  0  0  0  0  0  0
    4.3913    4.2576   -5.2378 C   0  0  0  0  0  0  0  0  0  0  0  0
    3.7005    5.4352   -5.4147 C   0  0  0  0  0  0  0  0  0  0  0  0
    4.3222    6.3125   -6.7786 S   0  0  0  0  0  0  0  0  0  0  0  0
    5.4912    5.0014   -7.0141 C   0  0  0  0  0  0  0  0  0  0  0  0
    6.3934    5.0939   -8.0658 N   0  0  0  0  0  0  0  0  0  0  0  0
    7.3917    4.1817   -8.4214 C   0  0  0  0  0  0  0  0  0  0  0  0
    7.6122    3.1551   -7.8259 O   0  0  0  0  0  0  0  0  0  0  0  0
    8.1722    4.6236   -9.6607 C   0  0  0  0  0  0  0  0  0  0  0  0
    9.3468    3.6909   -9.9815 C   0  0  0  0  0  0  0  0  0  0  0  0
   10.0966    4.1053  -11.2288 C   0  0  0  0  0  0  0  0  0  0  0  0
   11.1812    4.9945  -11.1573 C   0  0  0  0  0  0  0  0  0  0  0  0
   11.8536    5.4047  -12.3121 C   0  0  0  0  0  0  0  0  0  0  0  0
   11.4515    4.9306  -13.5643 C   0  0  0  0  0  0  0  0  0  0  0  0
   10.3752    4.0424  -13.6510 C   0  0  0  0  0  0  0  0  0  0  0  0
    9.7062    3.6352  -12.4934 C   0  0  0  0  0  0  0  0  0  0  0  0
    5.3988    4.0413   -6.1591 N   0  0  0  0  0  0  0  0  0  0  0  0
    3.1539    3.3754   -3.2208 C   0  0  0  0  0  0  0  0  0  0  0  0
    2.9369    2.4114   -2.2336 C   0  0  0  0  0  0  0  0  0  0  0  0
    3.7605    1.2784   -2.2274 C   0  0  0  0  0  0  0  0  0  0  0  0
    2.2694   -1.3260    1.2625 H   0  0  0  0  0  0  0  0  0  0  0  0
    4.0269   -1.4090    0.9308 H   0  0  0  0  0  0  0  0  0  0  0  0
    2.8845   -2.1887   -0.1836 H   0  0  0  0  0  0  0  0  0  0  0  0
    4.1720   -1.7251   -2.2301 H   0  0  0  0  0  0  0  0  0  0  0  0
    5.3345   -1.2063   -0.9924 H   0  0  0  0  0  0  0  0  0  0  0  0
    5.6472   -0.7742   -3.8208 H   0  0  0  0  0  0  0  0  0  0  0  0
    6.5654    0.0744   -2.5688 H   0  0  0  0  0  0  0  0  0  0  0  0
    5.7716    1.9908   -4.9082 H   0  0  0  0  0  0  0  0  0  0  0  0
    2.8744    5.8390   -4.8352 H   0  0  0  0  0  0  0  0  0  0  0  0
    6.3163    5.9250   -8.6406 H   0  0  0  0  0  0  0  0  0  0  0  0
    8.5303    5.6587   -9.5149 H   0  0  0  0  0  0  0  0  0  0  0  0
    7.4737    4.6660  -10.5162 H   0  0  0  0  0  0  0  0  0  0  0  0
    8.9608    2.6657  -10.0877 H   0  0  0  0  0  0  0  0  0  0  0  0
   10.0279    3.6686   -9.1166 H   0  0  0  0  0  0  0  0  0  0  0  0
   11.5088    5.3643  -10.1808 H   0  0  0  0  0  0  0  0  0  0  0  0
   12.6989    6.0934  -12.2328 H   0  0  0  0  0  0  0  0  0  0  0  0
   11.9783    5.2471  -14.4681 H   0  0  0  0  0  0  0  0  0  0  0  0
   10.0580    3.6597  -14.6248 H   0  0  0  0  0  0  0  0  0  0  0  0
    8.8706    2.9327  -12.5706 H   0  0  0  0  0  0  0  0  0  0  0  0
    2.5076    4.2561   -3.2273 H   0  0  0  0  0  0  0  0  0  0  0  0
    2.1549    2.5235   -1.4871 H   0  0  0  0  0  0  0  0  0  0  0  0
  1  2  1  0
  1 29  1  0
  1 30  1  0
  1 31  1  0
  2  3  2  0
  2  4  1  0
  4  5  1  0
  4 28  1  0
  5  6  1  0
  5 32  1  0
  5 33  1  0
  6  7  1  0
  6 34  1  0
  6 35  1  0
  7  8  2  0
  7 28  1  0
  8  9  1  0
  8 36  1  0
  9 10  1  0
  9 26  2  0
 10 11  2  0
 10 25  1  0
 11 12  1  0
 11 37  1  0
 12 13  1  0
 13 14  1  0
 13 25  2  0
 14 15  1  0
 14 38  1  0
 15 16  2  0
 15 17  1  0
 17 18  1  0
 17 39  1  0
 17 40  1  0
 18 19  1  0
 18 41  1  0
 18 42  1  0
 19 20  2  0
 19 24  1  0
 20 21  1  0
 20 43  1  0
 21 22  2  0
 21 44  1  0
 22 23  1  0
 22 45  1  0
 23 24  2  0
 23 46  1  0
 24 47  1  0
 26 27  1  0
 26 48  1  0
 27 28  2  0
 27 49  1  0
M  END

