
     RDKit          3D

 43 44  0  0  0  0  0  0  0  0999 V2000
    3.2662    0.6885    1.1814 C   0  0  0  0  0  0  0  0  0  0  0  0
    2.7964    0.1608   -0.1721 C   0  0  2  0  0  0  0  0  0  0  0  0
    1.7008    0.3126   -0.2125 H   0  0  0  0  0  0  0  0  0  0  0  0
    2.9815   -1.3797   -0.3164 C   0  0  2  0  0  0  0  0  0  0  0  0
    2.4414   -1.8711    0.5061 H   0  0  0  0  0  0  0  0  0  0  0  0
    4.3766   -1.7878   -0.1569 N   0  0  0  0  0  0  0  0  0  0  0  0
    4.8321   -2.4062    0.9587 C   0  0  0  0  0  0  0  0  0  0  0  0
    4.1812   -2.6975    1.9398 O   0  0  0  0  0  0  0  0  0  0  0  0
    6.3539   -2.7029    0.9427 C   0  0  1  0  0  0  0  0  0  0  0  0
    6.9012   -2.5105   -0.2811 F   0  0  0  0  0  0  0  0  0  0  0  0
    6.9823   -1.8859    1.7948 F   0  0  0  0  0  0  0  0  0  0  0  0
    6.5930   -3.9597    1.3042 F   0  0  0  0  0  0  0  0  0  0  0  0
    2.4125   -1.8580   -1.6644 C   0  0  0  0  0  0  0  0  0  0  0  0
    2.9453   -1.0326   -2.8430 C   0  0  0  0  0  0  0  0  0  0  0  0
    2.7389    0.4683   -2.5811 C   0  0  0  0  0  0  0  0  0  0  0  0
    3.3238    0.9148   -1.3178 N   0  0  0  0  0  0  0  0  0  0  0  0
    4.7389    1.2327   -1.3840 C   0  0  0  0  0  0  0  0  0  0  0  0
    5.0331    2.5422   -2.1041 C   0  0  0  0  0  0  0  0  0  0  0  0
    4.1496    3.6303   -2.0212 C   0  0  0  0  0  0  0  0  0  0  0  0
    4.4544    4.8445   -2.6315 C   0  0  0  0  0  0  0  0  0  0  0  0
    5.6444    5.0001   -3.3601 C   0  0  0  0  0  0  0  0  0  0  0  0
    5.9145    6.3387   -3.9880 C   0  0  0  0  0  0  0  0  0  0  0  0
    5.3419    7.3459   -3.6653 O   0  0  0  0  0  0  0  0  0  0  0  0
    6.8510    6.3702   -4.9655 O   0  0  0  0  0  0  0  0  0  0  0  0
    6.5337    3.9170   -3.4382 C   0  0  0  0  0  0  0  0  0  0  0  0
    6.2272    2.7030   -2.8208 C   0  0  0  0  0  0  0  0  0  0  0  0
    4.3282    0.4759    1.3755 H   0  0  0  0  0  0  0  0  0  0  0  0
    2.6941    0.2083    1.9887 H   0  0  0  0  0  0  0  0  0  0  0  0
    3.1137    1.7765    1.2448 H   0  0  0  0  0  0  0  0  0  0  0  0
    5.0279   -1.6427   -0.9195 H   0  0  0  0  0  0  0  0  0  0  0  0
    1.3147   -1.7515   -1.6199 H   0  0  0  0  0  0  0  0  0  0  0  0
    2.6192   -2.9322   -1.7975 H   0  0  0  0  0  0  0  0  0  0  0  0
    2.4394   -1.3276   -3.7772 H   0  0  0  0  0  0  0  0  0  0  0  0
    4.0189   -1.2409   -3.0066 H   0  0  0  0  0  0  0  0  0  0  0  0
    1.6537    0.6800   -2.5545 H   0  0  0  0  0  0  0  0  0  0  0  0
    3.1549    1.0727   -3.4017 H   0  0  0  0  0  0  0  0  0  0  0  0
    5.3591    0.4395   -1.8593 H   0  0  0  0  0  0  0  0  0  0  0  0
    5.1251    1.3258   -0.3575 H   0  0  0  0  0  0  0  0  0  0  0  0
    3.2144    3.5038   -1.4720 H   0  0  0  0  0  0  0  0  0  0  0  0
    3.7776    5.6981   -2.5586 H   0  0  0  0  0  0  0  0  0  0  0  0
    7.1191    5.4727   -5.2058 H   0  0  0  0  0  0  0  0  0  0  0  0
    7.4913    4.0111   -3.9597 H   0  0  0  0  0  0  0  0  0  0  0  0
    6.9332    1.8703   -2.8916 H   0  0  0  0  0  0  0  0  0  0  0  0
  1  2  1  0
  1 27  1  0
  1 28  1  0
  1 29  1  0
  2  3  1  1
  2  4  1  0
  2 16  1  0
  4  5  1  1
  4  6  1  0
  4 13  1  0
  6  7  1  0
  6 30  1  0
  7  8  2  0
  7  9  1  0
  9 10  1  6
  9 11  1  0
  9 12  1  0
 13 14  1  0
 13 31  1  0
 13 32  1  0
 14 15  1  0
 14 33  1  0
 14 34  1  0
 15 16  1  0
 15 35  1  0
 15 36  1  0
 16 17  1  0
 17 18  1  0
 17 37  1  0
 17 38  1  0
 18 19  2  0
 18 26  1  0
 19 20  1  0
 19 39  1  0
 20 21  2  0
 20 40  1  0
 21 22  1  0
 21 25  1  0
 22 23  2  0
 22 24  1  0
 24 41  1  0
 25 26  2  0
 25 42  1  0
 26 43  1  0
M  END

