
     RDKit          3D

 43 44  0  0  0  0  0  0  0  0999 V2000
    2.3631    0.3746   -2.2022 C   0  0  0  0  0  0  0  0  0  0  0  0
    3.3946    0.0563   -1.1458 C   0  0  0  0  0  0  0  0  0  0  0  0
    4.5027    0.9047   -0.9943 C   0  0  0  0  0  0  0  0  0  0  0  0
    5.4414    0.6710    0.0043 C   0  0  0  0  0  0  0  0  0  0  0  0
    6.4901    1.5031    0.1237 F   0  0  0  0  0  0  0  0  0  0  0  0
    5.3146   -0.3978    0.8852 C   0  0  0  0  0  0  0  0  0  0  0  0
    4.2173   -1.2453    0.7302 C   0  0  0  0  0  0  0  0  0  0  0  0
    3.2580   -1.0484   -0.2742 C   0  0  0  0  0  0  0  0  0  0  0  0
    2.0988   -2.0307   -0.3936 C   0  0  1  0  0  0  0  0  0  0  0  0
    2.5284   -3.4866   -0.6916 C   0  0  0  0  0  0  0  0  0  0  0  0
    1.4374   -4.3421   -0.0385 C   0  0  0  0  0  0  0  0  0  0  0  0
    1.1213   -3.5650    1.2464 C   0  0  0  0  0  0  0  0  0  0  0  0
    1.3173   -2.1686    0.8531 N   0  0  0  0  0  0  0  0  0  0  0  0
    0.5384   -1.1043    1.2606 C   0  0  0  0  0  0  0  0  0  0  0  0
    0.4905   -0.0546    0.6265 O   0  0  0  0  0  0  0  0  0  0  0  0
   -0.1814   -1.3029    2.4194 N   0  0  0  0  0  0  0  0  0  0  0  0
   -0.9613   -0.2378    3.0163 C   0  0  0  0  0  0  0  0  0  0  0  0
   -2.4822   -0.4368    2.8985 C   0  0  0  0  0  0  0  0  0  0  0  0
   -2.9717   -1.8501    3.2869 C   0  0  0  0  0  0  0  0  0  0  0  0
   -2.4312   -2.3131    4.6312 C   0  0  0  0  0  0  0  0  0  0  0  0
   -1.3367   -2.7984    4.7742 O   0  0  0  0  0  0  0  0  0  0  0  0
   -3.2206   -2.1095    5.7073 O   0  0  0  0  0  0  0  0  0  0  0  0
    2.6237    1.2979   -2.7393 H   0  0  0  0  0  0  0  0  0  0  0  0
    1.3774    0.5108   -1.7295 H   0  0  0  0  0  0  0  0  0  0  0  0
    2.2695   -0.4286   -2.9520 H   0  0  0  0  0  0  0  0  0  0  0  0
    4.6380    1.7685   -1.6489 H   0  0  0  0  0  0  0  0  0  0  0  0
    6.0593   -0.5505    1.6685 H   0  0  0  0  0  0  0  0  0  0  0  0
    4.0989   -2.0810    1.4251 H   0  0  0  0  0  0  0  0  0  0  0  0
    1.4207   -1.6812   -1.1854 H   0  0  0  0  0  0  0  0  0  0  0  0
    3.5033   -3.6957   -0.2237 H   0  0  0  0  0  0  0  0  0  0  0  0
    2.6414   -3.6641   -1.7713 H   0  0  0  0  0  0  0  0  0  0  0  0
    1.7517   -5.3786    0.1560 H   0  0  0  0  0  0  0  0  0  0  0  0
    0.5415   -4.3765   -0.6805 H   0  0  0  0  0  0  0  0  0  0  0  0
    1.8034   -3.8611    2.0673 H   0  0  0  0  0  0  0  0  0  0  0  0
    0.0925   -3.7373    1.5991 H   0  0  0  0  0  0  0  0  0  0  0  0
   -0.0141   -2.1137    3.0055 H   0  0  0  0  0  0  0  0  0  0  0  0
   -0.6815    0.6991    2.5147 H   0  0  0  0  0  0  0  0  0  0  0  0
   -0.6797   -0.1443    4.0788 H   0  0  0  0  0  0  0  0  0  0  0  0
   -2.7978   -0.2506    1.8591 H   0  0  0  0  0  0  0  0  0  0  0  0
   -2.9827    0.3238    3.5233 H   0  0  0  0  0  0  0  0  0  0  0  0
   -2.6076   -2.5693    2.5395 H   0  0  0  0  0  0  0  0  0  0  0  0
   -4.0742   -1.8844    3.2677 H   0  0  0  0  0  0  0  0  0  0  0  0
   -4.0660   -1.7235    5.4382 H   0  0  0  0  0  0  0  0  0  0  0  0
  1  2  1  0
  1 23  1  0
  1 24  1  0
  1 25  1  0
  2  3  2  0
  2  8  1  0
  3  4  1  0
  3 26  1  0
  4  5  1  0
  4  6  2  0
  6  7  1  0
  6 27  1  0
  7  8  2  0
  7 28  1  0
  8  9  1  0
  9 10  1  0
  9 13  1  0
  9 29  1  6
 10 11  1  0
 10 30  1  0
 10 31  1  0
 11 12  1  0
 11 32  1  0
 11 33  1  0
 12 13  1  0
 12 34  1  0
 12 35  1  0
 13 14  1  0
 14 15  2  0
 14 16  1  0
 16 17  1  0
 16 36  1  0
 17 18  1  0
 17 37  1  0
 17 38  1  0
 18 19  1  0
 18 39  1  0
 18 40  1  0
 19 20  1  0
 19 41  1  0
 19 42  1  0
 20 21  2  0
 20 22  1  0
 22 43  1  0
M  END

