
     RDKit          3D

 49 51  0  0  0  0  0  0  0  0999 V2000
    0.9401   -0.3778    0.3024 C   0  0  0  0  0  0  0  0  0  0  0  0
    2.3803    0.1452    0.2494 C   0  0  0  0  0  0  0  0  0  0  0  0
    2.9779    0.5968   -1.1187 C   0  0  1  0  0  0  0  0  0  0  0  0
    2.6863   -0.4592   -2.2320 C   0  0  0  0  0  0  0  0  0  0  0  0
    1.3024   -0.4441   -2.7097 N   0  0  0  0  0  0  0  0  0  0  0  0
    2.3242    1.9410   -1.5637 C   0  0  0  0  0  0  0  0  0  0  0  0
    2.6199    2.4407   -2.9669 C   0  0  0  0  0  0  0  0  0  0  0  0
    1.5794    2.5514   -3.9066 C   0  0  0  0  0  0  0  0  0  0  0  0
    1.8088    3.0494   -5.1925 C   0  0  0  0  0  0  0  0  0  0  0  0
    3.0937    3.4466   -5.5733 C   0  0  0  0  0  0  0  0  0  0  0  0
    4.1410    3.3409   -4.6535 C   0  0  0  0  0  0  0  0  0  0  0  0
    3.9063    2.8462   -3.3667 C   0  0  0  0  0  0  0  0  0  0  0  0
    4.4701    0.7687   -0.9866 N   0  0  0  0  0  0  0  0  0  0  0  0
    5.2652   -0.4605   -1.1292 C   0  0  0  0  0  0  0  0  0  0  0  0
    6.7649   -0.1803   -1.2164 C   0  0  0  0  0  0  0  0  0  0  0  0
    7.2468    0.5284   -0.0948 O   0  0  0  0  0  0  0  0  0  0  0  0
    6.5098    1.7149    0.0471 C   0  0  2  0  0  0  0  0  0  0  0  0
    6.8866    2.5152    1.2895 C   0  0  0  0  0  0  0  0  0  0  0  0
    5.6205    3.3650    1.5860 C   0  0  0  0  0  0  0  0  0  0  0  0
    4.5353    2.8903    0.5799 C   0  0  0  0  0  0  0  0  0  0  0  0
    4.9936    1.4731    0.1967 C   0  0  1  0  0  0  0  0  0  0  0  0
    0.6355   -0.5225    1.3518 H   0  0  0  0  0  0  0  0  0  0  0  0
    0.8321   -1.3566   -0.1914 H   0  0  0  0  0  0  0  0  0  0  0  0
    0.2193    0.3112   -0.1619 H   0  0  0  0  0  0  0  0  0  0  0  0
    3.0414   -0.6378    0.6598 H   0  0  0  0  0  0  0  0  0  0  0  0
    2.4570    0.9927    0.9490 H   0  0  0  0  0  0  0  0  0  0  0  0
    2.9811   -1.4612   -1.8740 H   0  0  0  0  0  0  0  0  0  0  0  0
    3.3449   -0.2182   -3.0791 H   0  0  0  0  0  0  0  0  0  0  0  0
    0.7566   -1.2043   -2.3134 H   0  0  0  0  0  0  0  0  0  0  0  0
    1.2732   -0.5493   -3.7207 H   0  0  0  0  0  0  0  0  0  0  0  0
    2.5993    2.7195   -0.8429 H   0  0  0  0  0  0  0  0  0  0  0  0
    1.2381    1.8126   -1.4780 H   0  0  0  0  0  0  0  0  0  0  0  0
    0.5748    2.2315   -3.6203 H   0  0  0  0  0  0  0  0  0  0  0  0
    0.9783    3.1285   -5.8997 H   0  0  0  0  0  0  0  0  0  0  0  0
    3.2770    3.8375   -6.5777 H   0  0  0  0  0  0  0  0  0  0  0  0
    5.1511    3.6492   -4.9376 H   0  0  0  0  0  0  0  0  0  0  0  0
    4.7336    2.7533   -2.6633 H   0  0  0  0  0  0  0  0  0  0  0  0
    4.9954   -0.9893   -2.0503 H   0  0  0  0  0  0  0  0  0  0  0  0
    5.0977   -1.1649   -0.2821 H   0  0  0  0  0  0  0  0  0  0  0  0
    6.9747    0.3886   -2.1457 H   0  0  0  0  0  0  0  0  0  0  0  0
    7.3157   -1.1326   -1.2619 H   0  0  0  0  0  0  0  0  0  0  0  0
    6.6485    2.3401   -0.8622 H   0  0  0  0  0  0  0  0  0  0  0  0
    7.7915    3.1205    1.1346 H   0  0  0  0  0  0  0  0  0  0  0  0
    7.1021    1.8081    2.1058 H   0  0  0  0  0  0  0  0  0  0  0  0
    5.8089    4.4438    1.4806 H   0  0  0  0  0  0  0  0  0  0  0  0
    5.2821    3.2079    2.6216 H   0  0  0  0  0  0  0  0  0  0  0  0
    4.5321    3.5373   -0.3107 H   0  0  0  0  0  0  0  0  0  0  0  0
    3.5296    2.9322    1.0192 H   0  0  0  0  0  0  0  0  0  0  0  0
    4.8838    0.8341    1.1030 H   0  0  0  0  0  0  0  0  0  0  0  0
  1  2  1  0
  1 22  1  0
  1 23  1  0
  1 24  1  0
  3  2  1  1
  2 25  1  0
  2 26  1  0
  3  4  1  0
  3  6  1  0
  3 13  1  0
  4  5  1  0
  4 27  1  0
  4 28  1  0
  5 29  1  0
  5 30  1  0
  6  7  1  0
  6 31  1  0
  6 32  1  0
  7  8  2  0
  7 12  1  0
  8  9  1  0
  8 33  1  0
  9 10  2  0
  9 34  1  0
 10 11  1  0
 10 35  1  0
 11 12  2  0
 11 36  1  0
 12 37  1  0
 13 14  1  0
 13 21  1  0
 14 15  1  0
 14 38  1  0
 14 39  1  0
 15 16  1  0
 15 40  1  0
 15 41  1  0
 16 17  1  0
 17 18  1  0
 17 21  1  0
 17 42  1  6
 18 19  1  0
 18 43  1  0
 18 44  1  0
 19 20  1  0
 19 45  1  0
 19 46  1  0
 20 21  1  0
 20 47  1  0
 20 48  1  0
 21 49  1  1
M  END

