
     RDKit          3D

 56 58  0  0  0  0  0  0  0  0999 V2000
    1.9248    0.2760    3.5772 C   0  0  0  0  0  0  0  0  0  0  0  0
    2.7876    0.0188    2.4898 O   0  0  0  0  0  0  0  0  0  0  0  0
    3.1839   -1.2499    2.2365 C   0  0  0  0  0  0  0  0  0  0  0  0
    2.8986   -2.3483    3.0582 C   0  0  0  0  0  0  0  0  0  0  0  0
    3.3610   -3.6302    2.7470 C   0  0  0  0  0  0  0  0  0  0  0  0
    4.1294   -3.8446    1.5927 C   0  0  0  0  0  0  0  0  0  0  0  0
    4.6320   -5.1022    1.2057 N   0  0  0  0  0  0  0  0  0  0  0  0
    4.4064   -6.3174    1.7906 C   0  0  0  0  0  0  0  0  0  0  0  0
    3.7653   -6.5053    2.8091 O   0  0  0  0  0  0  0  0  0  0  0  0
    5.0842   -7.4995    1.0640 C   0  0  0  0  0  0  0  0  0  0  0  0
    4.6847   -7.6803   -0.3247 N   0  0  0  0  0  0  0  0  0  0  0  0
    5.1734   -6.8940   -1.3890 C   0  0  0  0  0  0  0  0  0  0  0  0
    5.8938   -5.9216   -1.2532 O   0  0  0  0  0  0  0  0  0  0  0  0
    4.6876   -7.4351   -2.5336 N   0  0  0  0  0  0  0  0  0  0  0  0
    3.7850   -8.5649   -2.3158 C   0  0  2  0  0  0  0  0  0  0  0  0
    4.2935   -9.8602   -2.9762 C   0  0  0  0  0  0  0  0  0  0  0  0
    2.3532   -8.2491   -2.7765 C   0  0  0  0  0  0  0  0  0  0  0  0
    1.2201   -8.5246   -1.9984 C   0  0  0  0  0  0  0  0  0  0  0  0
   -0.0503   -8.2327   -2.4918 C   0  0  0  0  0  0  0  0  0  0  0  0
   -1.1152   -8.5023   -1.7273 F   0  0  0  0  0  0  0  0  0  0  0  0
   -0.2447   -7.6719   -3.7513 C   0  0  0  0  0  0  0  0  0  0  0  0
    0.8745   -7.4047   -4.5418 C   0  0  0  0  0  0  0  0  0  0  0  0
    2.1396   -7.7020   -4.0497 C   0  0  0  0  0  0  0  0  0  0  0  0
    3.2103   -7.4535   -4.8429 F   0  0  0  0  0  0  0  0  0  0  0  0
    3.8799   -8.7088   -0.7755 C   0  0  0  0  0  0  0  0  0  0  0  0
    3.3791   -9.5770   -0.1019 O   0  0  0  0  0  0  0  0  0  0  0  0
    4.4133   -2.7485    0.7598 C   0  0  0  0  0  0  0  0  0  0  0  0
    3.9528   -1.4727    1.0736 C   0  0  0  0  0  0  0  0  0  0  0  0
    4.2974   -0.1473   -0.1117 S   0  0  1  0  0  0  0  0  0  0  0  0
    5.1577   -0.7579   -1.1307 O   0  0  0  0  0  0  0  0  0  0  0  0
    3.0326    0.4874   -0.4781 O   0  0  0  0  0  0  0  0  0  0  0  0
    5.2211    1.0088    0.6642 N   0  0  0  0  0  0  0  0  0  0  0  0
    4.6072    2.1679    1.2876 C   0  0  0  0  0  0  0  0  0  0  0  0
    6.5892    0.6844    1.0263 C   0  0  0  0  0  0  0  0  0  0  0  0
    1.7013    1.3504    3.5479 H   0  0  0  0  0  0  0  0  0  0  0  0
    2.3999    0.0340    4.5447 H   0  0  0  0  0  0  0  0  0  0  0  0
    0.9812   -0.2900    3.4888 H   0  0  0  0  0  0  0  0  0  0  0  0
    2.3067   -2.2171    3.9641 H   0  0  0  0  0  0  0  0  0  0  0  0
    3.1284   -4.4717    3.3957 H   0  0  0  0  0  0  0  0  0  0  0  0
    5.2165   -5.1117    0.3652 H   0  0  0  0  0  0  0  0  0  0  0  0
    4.7971   -8.4079    1.6064 H   0  0  0  0  0  0  0  0  0  0  0  0
    6.1788   -7.3758    1.1014 H   0  0  0  0  0  0  0  0  0  0  0  0
    4.8033   -6.9745   -3.4282 H   0  0  0  0  0  0  0  0  0  0  0  0
    4.2646   -9.7626   -4.0709 H   0  0  0  0  0  0  0  0  0  0  0  0
    3.6554  -10.7020   -2.6727 H   0  0  0  0  0  0  0  0  0  0  0  0
    5.3288  -10.0685   -2.6664 H   0  0  0  0  0  0  0  0  0  0  0  0
    1.3151   -8.9780   -1.0115 H   0  0  0  0  0  0  0  0  0  0  0  0
   -1.2560   -7.4547   -4.0987 H   0  0  0  0  0  0  0  0  0  0  0  0
    0.7810   -6.9708   -5.5389 H   0  0  0  0  0  0  0  0  0  0  0  0
    4.9905   -2.8772   -0.1583 H   0  0  0  0  0  0  0  0  0  0  0  0
    3.5786    2.2717    0.9249 H   0  0  0  0  0  0  0  0  0  0  0  0
    5.1733    3.0734    1.0071 H   0  0  0  0  0  0  0  0  0  0  0  0
    4.5927    2.0874    2.3897 H   0  0  0  0  0  0  0  0  0  0  0  0
    6.9579   -0.1282    0.3877 H   0  0  0  0  0  0  0  0  0  0  0  0
    6.6853    0.3863    2.0887 H   0  0  0  0  0  0  0  0  0  0  0  0
    7.2312    1.5652    0.8563 H   0  0  0  0  0  0  0  0  0  0  0  0
  1  2  1  0
  1 35  1  0
  1 36  1  0
  1 37  1  0
  2  3  1  0
  3  4  2  0
  3 28  1  0
  4  5  1  0
  4 38  1  0
  5  6  2  0
  5 39  1  0
  6  7  1  0
  6 27  1  0
  7  8  1  0
  7 40  1  0
  8  9  2  0
  8 10  1  0
 10 11  1  0
 10 41  1  0
 10 42  1  0
 11 12  1  0
 11 25  1  0
 12 13  2  0
 12 14  1  0
 14 15  1  0
 14 43  1  0
 15 16  1  6
 15 17  1  0
 15 25  1  0
 16 44  1  0
 16 45  1  0
 16 46  1  0
 17 18  2  0
 17 23  1  0
 18 19  1  0
 18 47  1  0
 19 20  1  0
 19 21  2  0
 21 22  1  0
 21 48  1  0
 22 23  2  0
 22 49  1  0
 23 24  1  0
 25 26  2  0
 27 28  2  0
 27 50  1  0
 28 29  1  0
 29 30  2  0
 29 31  2  0
 29 32  1  1
 32 33  1  0
 32 34  1  0
 33 51  1  0
 33 52  1  0
 33 53  1  0
 34 54  1  0
 34 55  1  0
 34 56  1  0
M  END

