
     RDKit          3D

 82 84  0  0  0  0  0  0  0  0999 V2000
    3.9174   -4.5457  -11.9487 C   0  0  0  0  0  0  0  0  0  0  0  0
    5.2645   -4.1289  -11.3566 C   0  0  0  0  0  0  0  0  0  0  0  0
    5.2588   -2.7230  -10.7481 C   0  0  0  0  0  0  0  0  0  0  0  0
    6.6044   -2.2978  -10.1535 C   0  0  0  0  0  0  0  0  0  0  0  0
    6.5978   -0.8924   -9.5446 C   0  0  0  0  0  0  0  0  0  0  0  0
    7.9448   -0.4698   -8.9519 C   0  0  0  0  0  0  0  0  0  0  0  0
    7.9304    0.9430   -8.3401 C   0  0  0  0  0  0  0  0  0  0  0  0
    9.2606    1.3635   -7.7557 C   0  0  0  0  0  0  0  0  0  0  0  0
   10.2349    1.9951   -8.5458 C   0  0  0  0  0  0  0  0  0  0  0  0
   11.4746    2.3542   -8.0183 C   0  0  0  0  0  0  0  0  0  0  0  0
   11.7676    2.0754   -6.6808 C   0  0  0  0  0  0  0  0  0  0  0  0
   13.0420    2.4536   -6.2681 O   0  0  0  0  0  0  0  0  0  0  0  0
   13.3581    2.6693   -4.9593 C   0  0  1  0  0  0  0  0  0  0  0  0
   12.4549    3.5043   -4.3760 F   0  0  0  0  0  0  0  0  0  0  0  0
   13.2732    1.4988   -4.2459 F   0  0  0  0  0  0  0  0  0  0  0  0
   14.7625    3.2232   -4.8512 C   0  0  0  0  0  0  0  0  0  0  0  0
   15.0546    4.2271   -3.9237 C   0  0  0  0  0  0  0  0  0  0  0  0
   16.3616    4.7031   -3.7966 C   0  0  0  0  0  0  0  0  0  0  0  0
   17.3793    4.1762   -4.5965 C   0  0  0  0  0  0  0  0  0  0  0  0
   18.8058    4.6536   -4.4283 C   0  0  1  0  0  0  0  0  0  0  0  0
   18.8513    5.8386   -3.7603 F   0  0  0  0  0  0  0  0  0  0  0  0
   19.4913    3.7694   -3.6315 F   0  0  0  0  0  0  0  0  0  0  0  0
   19.4076    4.7624   -5.6470 O   0  0  0  0  0  0  0  0  0  0  0  0
   20.6743    5.3160   -5.8117 C   0  0  0  0  0  0  0  0  0  0  0  0
   21.6534    5.3737   -4.8158 C   0  0  0  0  0  0  0  0  0  0  0  0
   22.8939    5.9418   -5.1200 C   0  0  0  0  0  0  0  0  0  0  0  0
   23.1901    6.4459   -6.3949 C   0  0  0  0  0  0  0  0  0  0  0  0
   24.5546    7.0140   -6.7160 C   0  0  0  0  0  0  0  0  0  0  0  0
   25.5470    5.9671   -7.2543 C   0  0  0  0  0  0  0  0  0  0  0  0
   26.9270    6.5445   -7.5804 C   0  0  0  0  0  0  0  0  0  0  0  0
   27.9192    5.5082   -8.1164 C   0  0  0  0  0  0  0  0  0  0  0  0
   29.3006    6.0826   -8.4439 C   0  0  0  0  0  0  0  0  0  0  0  0
   30.2934    5.0465   -8.9803 C   0  0  0  0  0  0  0  0  0  0  0  0
   31.6701    5.6280   -9.3050 C   0  0  0  0  0  0  0  0  0  0  0  0
   22.1867    6.3670   -7.3743 C   0  0  0  0  0  0  0  0  0  0  0  0
   20.9386    5.8139   -7.0902 C   0  0  0  0  0  0  0  0  0  0  0  0
   17.0860    3.1715   -5.5282 C   0  0  0  0  0  0  0  0  0  0  0  0
   15.7824    2.6968   -5.6550 C   0  0  0  0  0  0  0  0  0  0  0  0
   10.8221    1.4426   -5.8688 C   0  0  0  0  0  0  0  0  0  0  0  0
    9.5820    1.1007   -6.4160 C   0  0  0  0  0  0  0  0  0  0  0  0
    3.9586   -5.5602  -12.3764 H   0  0  0  0  0  0  0  0  0  0  0  0
    3.6027   -3.8587  -12.7523 H   0  0  0  0  0  0  0  0  0  0  0  0
    3.1236   -4.5399  -11.1828 H   0  0  0  0  0  0  0  0  0  0  0  0
    6.0437   -4.1820  -12.1388 H   0  0  0  0  0  0  0  0  0  0  0  0
    5.5687   -4.8573  -10.5828 H   0  0  0  0  0  0  0  0  0  0  0  0
    4.4797   -2.6687   -9.9645 H   0  0  0  0  0  0  0  0  0  0  0  0
    4.9543   -1.9929  -11.5216 H   0  0  0  0  0  0  0  0  0  0  0  0
    7.3829   -2.3515  -10.9372 H   0  0  0  0  0  0  0  0  0  0  0  0
    6.9089   -3.0280   -9.3807 H   0  0  0  0  0  0  0  0  0  0  0  0
    5.8204   -0.8380   -8.7597 H   0  0  0  0  0  0  0  0  0  0  0  0
    6.2931   -0.1611  -10.3165 H   0  0  0  0  0  0  0  0  0  0  0  0
    8.7251   -0.5168   -9.7328 H   0  0  0  0  0  0  0  0  0  0  0  0
    8.2537   -1.1946   -8.1773 H   0  0  0  0  0  0  0  0  0  0  0  0
    7.1547    0.9863   -7.5562 H   0  0  0  0  0  0  0  0  0  0  0  0
    7.6249    1.6663   -9.1159 H   0  0  0  0  0  0  0  0  0  0  0  0
   10.0169    2.2219   -9.5936 H   0  0  0  0  0  0  0  0  0  0  0  0
   12.2277    2.8568   -8.6282 H   0  0  0  0  0  0  0  0  0  0  0  0
   14.2583    4.6427   -3.3051 H   0  0  0  0  0  0  0  0  0  0  0  0
   16.5892    5.4917   -3.0783 H   0  0  0  0  0  0  0  0  0  0  0  0
   21.4594    4.9827   -3.8189 H   0  0  0  0  0  0  0  0  0  0  0  0
   23.6530    5.9910   -4.3338 H   0  0  0  0  0  0  0  0  0  0  0  0
   24.9808    7.4800   -5.8109 H   0  0  0  0  0  0  0  0  0  0  0  0
   24.4499    7.8236   -7.4590 H   0  0  0  0  0  0  0  0  0  0  0  0
   25.1191    5.4954   -8.1573 H   0  0  0  0  0  0  0  0  0  0  0  0
   25.6501    5.1541   -6.5132 H   0  0  0  0  0  0  0  0  0  0  0  0
   27.3479    7.0186   -6.6741 H   0  0  0  0  0  0  0  0  0  0  0  0
   26.8162    7.3604   -8.3190 H   0  0  0  0  0  0  0  0  0  0  0  0
   27.4971    5.0343   -9.0222 H   0  0  0  0  0  0  0  0  0  0  0  0
   28.0290    4.6928   -7.3774 H   0  0  0  0  0  0  0  0  0  0  0  0
   29.7231    6.5566   -7.5380 H   0  0  0  0  0  0  0  0  0  0  0  0
   29.1910    6.8984   -9.1831 H   0  0  0  0  0  0  0  0  0  0  0  0
   29.8698    4.5734   -9.8851 H   0  0  0  0  0  0  0  0  0  0  0  0
   30.4018    4.2320   -8.2410 H   0  0  0  0  0  0  0  0  0  0  0  0
   31.6008    6.4198  -10.0699 H   0  0  0  0  0  0  0  0  0  0  0  0
   32.3567    4.8559   -9.6877 H   0  0  0  0  0  0  0  0  0  0  0  0
   32.1376    6.0752   -8.4116 H   0  0  0  0  0  0  0  0  0  0  0  0
   22.3798    6.7564   -8.3781 H   0  0  0  0  0  0  0  0  0  0  0  0
   20.1534    5.7641   -7.8471 H   0  0  0  0  0  0  0  0  0  0  0  0
   17.8807    2.7703   -6.1593 H   0  0  0  0  0  0  0  0  0  0  0  0
   15.5489    1.9212   -6.3862 H   0  0  0  0  0  0  0  0  0  0  0  0
   11.0425    1.2155   -4.8276 H   0  0  0  0  0  0  0  0  0  0  0  0
    8.8438    0.6128   -5.7728 H   0  0  0  0  0  0  0  0  0  0  0  0
  1  2  1  0
  1 41  1  0
  1 42  1  0
  1 43  1  0
  2  3  1  0
  2 44  1  0
  2 45  1  0
  3  4  1  0
  3 46  1  0
  3 47  1  0
  4  5  1  0
  4 48  1  0
  4 49  1  0
  5  6  1  0
  5 50  1  0
  5 51  1  0
  6  7  1  0
  6 52  1  0
  6 53  1  0
  7  8  1  0
  7 54  1  0
  7 55  1  0
  8  9  2  0
  8 40  1  0
  9 10  1  0
  9 56  1  0
 10 11  2  0
 10 57  1  0
 11 12  1  0
 11 39  1  0
 12 13  1  0
 13 14  1  1
 13 15  1  0
 13 16  1  0
 16 17  2  0
 16 38  1  0
 17 18  1  0
 17 58  1  0
 18 19  2  0
 18 59  1  0
 19 20  1  0
 19 37  1  0
 20 21  1  1
 20 22  1  0
 20 23  1  0
 23 24  1  0
 24 25  2  0
 24 36  1  0
 25 26  1  0
 25 60  1  0
 26 27  2  0
 26 61  1  0
 27 28  1  0
 27 35  1  0
 28 29  1  0
 28 62  1  0
 28 63  1  0
 29 30  1  0
 29 64  1  0
 29 65  1  0
 30 31  1  0
 30 66  1  0
 30 67  1  0
 31 32  1  0
 31 68  1  0
 31 69  1  0
 32 33  1  0
 32 70  1  0
 32 71  1  0
 33 34  1  0
 33 72  1  0
 33 73  1  0
 34 74  1  0
 34 75  1  0
 34 76  1  0
 35 36  2  0
 35 77  1  0
 36 78  1  0
 37 38  2  0
 37 79  1  0
 38 80  1  0
 39 40  2  0
 39 81  1  0
 40 82  1  0
M  END

