
     RDKit          3D

 64 67  0  0  0  0  0  0  0  0999 V2000
    5.9746   -7.1030    5.9247 C   0  0  0  0  0  0  0  0  0  0  0  0
    7.0514   -7.8569    6.5515 N   0  0  0  0  0  0  0  0  0  0  0  0
    6.8779   -9.2986    6.5372 C   0  0  0  0  0  0  0  0  0  0  0  0
    7.4025   -9.9761    5.2602 C   0  0  0  0  0  0  0  0  0  0  0  0
    7.0622  -11.1067    4.9586 O   0  0  0  0  0  0  0  0  0  0  0  0
    8.2893   -9.1963    4.5703 N   0  0  0  0  0  0  0  0  0  0  0  0
    8.9891   -9.5004    3.3992 C   0  0  0  0  0  0  0  0  0  0  0  0
    8.9014  -10.7171    2.7166 C   0  0  0  0  0  0  0  0  0  0  0  0
    9.6373  -10.9326    1.5412 C   0  0  0  0  0  0  0  0  0  0  0  0
   10.4829   -9.9596    1.0267 C   0  0  0  0  0  0  0  0  0  0  0  0
   10.5975   -8.7167    1.7149 C   0  0  0  0  0  0  0  0  0  0  0  0
    9.8365   -8.4843    2.8883 C   0  0  0  0  0  0  0  0  0  0  0  0
    9.8687   -7.3340    3.5872 O   0  0  0  0  0  0  0  0  0  0  0  0
   11.5015   -7.7130    1.1777 C   0  0  0  0  0  0  0  0  0  0  0  0
   11.4149   -6.4832    1.6827 O   0  0  0  0  0  0  0  0  0  0  0  0
   12.4296   -8.0067    0.1721 C   0  0  0  0  0  0  0  0  0  0  0  0
   13.2228   -6.9465   -0.3419 C   0  0  0  0  0  0  0  0  0  0  0  0
   13.1769   -5.7656    0.1308 O   0  0  0  0  0  0  0  0  0  0  0  0
   14.2208   -7.2670   -1.4742 C   0  0  2  0  0  0  0  0  0  0  0  0
   15.3699   -7.8049   -0.7991 O   0  0  0  0  0  0  0  0  0  0  0  0
   14.6542   -6.0372   -2.2668 C   0  0  0  0  0  0  0  0  0  0  0  0
   14.9632   -4.9544   -1.5269 O   0  0  0  0  0  0  0  0  0  0  0  0
   14.8774   -6.0482   -3.6073 C   0  0  0  0  0  0  0  0  0  0  0  0
   15.5633   -4.8830   -4.2943 C   0  0  0  0  0  0  0  0  0  0  0  0
   14.8586   -3.7167   -4.3329 N   0  0  0  0  0  0  0  0  0  0  0  0
   16.6657   -5.0154   -4.7882 O   0  0  0  0  0  0  0  0  0  0  0  0
   14.5699   -7.2210   -4.4532 C   0  0  0  0  0  0  0  0  0  0  0  0
   14.6192   -7.1636   -5.6696 O   0  0  0  0  0  0  0  0  0  0  0  0
   14.2286   -8.5526   -3.7631 C   0  0  1  0  0  0  0  0  0  0  0  0
   13.4367   -8.9920   -4.3879 H   0  0  0  0  0  0  0  0  0  0  0  0
   15.3431   -9.5051   -3.8257 N   0  0  0  0  0  0  0  0  0  0  0  0
   16.6648   -8.9969   -3.4697 C   0  0  0  0  0  0  0  0  0  0  0  0
   15.3811  -10.2599   -5.0714 C   0  0  0  0  0  0  0  0  0  0  0  0
   13.5809   -8.3382   -2.3731 C   0  0  1  0  0  0  0  0  0  0  0  0
   13.3798   -9.6368   -1.5915 C   0  0  0  0  0  0  0  0  0  0  0  0
   12.6061   -9.4576   -0.2586 C   0  0  2  0  0  0  0  0  0  0  0  0
   11.2362  -10.1491   -0.2692 C   0  0  0  0  0  0  0  0  0  0  0  0
    6.1807   -6.0245    6.0007 H   0  0  0  0  0  0  0  0  0  0  0  0
    4.9745   -7.2994    6.3650 H   0  0  0  0  0  0  0  0  0  0  0  0
    5.9178   -7.3514    4.8524 H   0  0  0  0  0  0  0  0  0  0  0  0
    7.2215   -7.5223    7.4961 H   0  0  0  0  0  0  0  0  0  0  0  0
    5.8287   -9.6345    6.6579 H   0  0  0  0  0  0  0  0  0  0  0  0
    7.4448   -9.7444    7.3720 H   0  0  0  0  0  0  0  0  0  0  0  0
    8.4416   -8.2748    4.9847 H   0  0  0  0  0  0  0  0  0  0  0  0
    8.2451  -11.4865    3.1191 H   0  0  0  0  0  0  0  0  0  0  0  0
    9.5376  -11.8891    1.0225 H   0  0  0  0  0  0  0  0  0  0  0  0
   10.4258   -6.6880    3.1103 H   0  0  0  0  0  0  0  0  0  0  0  0
   12.1152   -5.9185    1.1943 H   0  0  0  0  0  0  0  0  0  0  0  0
   15.8679   -7.0670   -0.4164 H   0  0  0  0  0  0  0  0  0  0  0  0
   14.3780   -4.9785   -0.7273 H   0  0  0  0  0  0  0  0  0  0  0  0
   14.0361   -3.5894   -3.7588 H   0  0  0  0  0  0  0  0  0  0  0  0
   15.3352   -2.8933   -4.6843 H   0  0  0  0  0  0  0  0  0  0  0  0
   16.6326   -8.5171   -2.4848 H   0  0  0  0  0  0  0  0  0  0  0  0
   17.0760   -8.2723   -4.2035 H   0  0  0  0  0  0  0  0  0  0  0  0
   17.3650   -9.8456   -3.4084 H   0  0  0  0  0  0  0  0  0  0  0  0
   14.4027  -10.7287   -5.2629 H   0  0  0  0  0  0  0  0  0  0  0  0
   16.1286  -11.0653   -4.9832 H   0  0  0  0  0  0  0  0  0  0  0  0
   15.6414   -9.6425   -5.9552 H   0  0  0  0  0  0  0  0  0  0  0  0
   12.5859   -7.9186   -2.6090 H   0  0  0  0  0  0  0  0  0  0  0  0
   14.3663  -10.0783   -1.4051 H   0  0  0  0  0  0  0  0  0  0  0  0
   12.8461  -10.3522   -2.2372 H   0  0  0  0  0  0  0  0  0  0  0  0
   13.2017   -9.9443    0.5356 H   0  0  0  0  0  0  0  0  0  0  0  0
   11.3583  -11.2237   -0.4743 H   0  0  0  0  0  0  0  0  0  0  0  0
   10.6329   -9.7376   -1.1029 H   0  0  0  0  0  0  0  0  0  0  0  0
  1  2  1  0
  1 38  1  0
  1 39  1  0
  1 40  1  0
  2  3  1  0
  2 41  1  0
  3  4  1  0
  3 42  1  0
  3 43  1  0
  4  5  2  0
  4  6  1  0
  6  7  1  0
  6 44  1  0
  7  8  2  0
  7 12  1  0
  8  9  1  0
  8 45  1  0
  9 10  2  0
  9 46  1  0
 10 11  1  0
 10 37  1  0
 11 12  2  0
 11 14  1  0
 12 13  1  0
 13 47  1  0
 14 15  1  0
 14 16  2  0
 15 48  1  0
 16 17  1  0
 16 36  1  0
 17 18  2  0
 17 19  1  0
 19 20  1  1
 19 21  1  0
 19 34  1  0
 20 49  1  0
 21 22  1  0
 21 23  2  0
 22 50  1  0
 23 24  1  0
 23 27  1  0
 24 25  1  0
 24 26  2  0
 25 51  1  0
 25 52  1  0
 27 28  2  0
 27 29  1  0
 29 30  1  6
 29 31  1  0
 29 34  1  0
 31 32  1  0
 31 33  1  0
 32 53  1  0
 32 54  1  0
 32 55  1  0
 33 56  1  0
 33 57  1  0
 33 58  1  0
 34 35  1  0
 34 59  1  6
 35 36  1  0
 35 60  1  0
 35 61  1  0
 36 37  1  0
 36 62  1  1
 37 63  1  0
 37 64  1  0
M  END

