
     RDKit          3D

 74 82  0  0  0  0  0  0  0  0999 V2000
    7.2551   -4.2505   -0.7892 C   0  0  0  0  0  0  0  0  0  0  0  0
    6.1930   -4.0216    0.0913 C   0  0  0  0  0  0  0  0  0  0  0  0
    5.6308   -2.7499    0.2129 C   0  0  0  0  0  0  0  0  0  0  0  0
    6.1144   -1.6784   -0.5618 C   0  0  0  0  0  0  0  0  0  0  0  0
    5.5341   -0.3890   -0.4524 N   0  0  0  0  0  0  0  0  0  0  0  0
    6.3452    0.7745   -0.4735 C   0  0  0  0  0  0  0  0  0  0  0  0
    7.5831    0.8024    0.1968 C   0  0  0  0  0  0  0  0  0  0  0  0
    8.3761    1.9506    0.1702 C   0  0  0  0  0  0  0  0  0  0  0  0
    7.9483    3.0976   -0.5063 C   0  0  0  0  0  0  0  0  0  0  0  0
    6.7149    3.0783   -1.1653 C   0  0  0  0  0  0  0  0  0  0  0  0
    5.9224    1.9295   -1.1584 C   0  0  0  0  0  0  0  0  0  0  0  0
    4.1234   -0.2615   -0.3079 C   0  0  0  0  0  0  0  0  0  0  0  0
    3.2583   -0.9791   -1.1614 C   0  0  0  0  0  0  0  0  0  0  0  0
    1.8697   -0.8884   -1.0443 C   0  0  0  0  0  0  0  0  0  0  0  0
    1.3409   -0.0448   -0.0687 C   0  0  0  0  0  0  0  0  0  0  0  0
    2.2023    0.7100    0.8077 C   0  0  0  0  0  0  0  0  0  0  0  0
    3.5862    0.5796    0.6821 C   0  0  0  0  0  0  0  0  0  0  0  0
    1.3399    1.4870    1.7117 C   0  0  0  0  0  0  0  0  0  0  0  0
    1.3709    2.4043    2.7756 C   0  0  0  0  0  0  0  0  0  0  0  0
    0.1438    2.8636    3.3066 C   0  0  0  0  0  0  0  0  0  0  0  0
   -1.1269    2.4593    2.8367 C   0  0  0  0  0  0  0  0  0  0  0  0
   -1.1882    1.5426    1.7736 C   0  0  0  0  0  0  0  0  0  0  0  0
   -2.1271    0.8052    0.9137 C   0  0  0  0  0  0  0  0  0  0  0  0
   -3.5199    0.7356    0.8562 C   0  0  0  0  0  0  0  0  0  0  0  0
   -4.1412   -0.0803   -0.1051 C   0  0  0  0  0  0  0  0  0  0  0  0
   -5.5616   -0.1459   -0.1802 N   0  0  0  0  0  0  0  0  0  0  0  0
   -6.2023   -1.4088   -0.2565 C   0  0  0  0  0  0  0  0  0  0  0  0
   -7.3175   -1.6013   -1.0944 C   0  0  0  0  0  0  0  0  0  0  0  0
   -7.9431   -2.8468   -1.1643 C   0  0  0  0  0  0  0  0  0  0  0  0
   -7.4639   -3.9288   -0.4185 C   0  0  0  0  0  0  0  0  0  0  0  0
   -6.3506   -3.7455    0.4076 C   0  0  0  0  0  0  0  0  0  0  0  0
   -5.7281   -2.4994    0.4970 C   0  0  0  0  0  0  0  0  0  0  0  0
   -6.3209    1.0521   -0.1647 C   0  0  0  0  0  0  0  0  0  0  0  0
   -5.8811    2.1874   -0.8717 C   0  0  0  0  0  0  0  0  0  0  0  0
   -6.6217    3.3700   -0.8428 C   0  0  0  0  0  0  0  0  0  0  0  0
   -7.8198    3.4437   -0.1253 C   0  0  0  0  0  0  0  0  0  0  0  0
   -8.2646    2.3167    0.5736 C   0  0  0  0  0  0  0  0  0  0  0  0
   -7.5226    1.1347    0.5644 C   0  0  0  0  0  0  0  0  0  0  0  0
   -3.3513   -0.8347   -0.9988 C   0  0  0  0  0  0  0  0  0  0  0  0
   -1.9560   -0.8050   -0.9500 C   0  0  0  0  0  0  0  0  0  0  0  0
   -1.3436    0.0141   -0.0028 C   0  0  0  0  0  0  0  0  0  0  0  0
    0.0120    0.2500    0.2718 N   0  0  0  0  0  0  0  0  0  0  0  0
    0.0569    1.1392    1.3068 C   0  0  0  0  0  0  0  0  0  0  0  0
    7.1775   -1.9165   -1.4540 C   0  0  0  0  0  0  0  0  0  0  0  0
    7.7438   -3.1878   -1.5564 C   0  0  0  0  0  0  0  0  0  0  0  0
    7.6968   -5.2458   -0.8771 H   0  0  0  0  0  0  0  0  0  0  0  0
    5.8029   -4.8395    0.7030 H   0  0  0  0  0  0  0  0  0  0  0  0
    4.8109   -2.5785    0.9127 H   0  0  0  0  0  0  0  0  0  0  0  0
    7.9196   -0.0824    0.7401 H   0  0  0  0  0  0  0  0  0  0  0  0
    9.3338    1.9512    0.6976 H   0  0  0  0  0  0  0  0  0  0  0  0
    8.5689    3.9966   -0.5191 H   0  0  0  0  0  0  0  0  0  0  0  0
    6.3678    3.9642   -1.7039 H   0  0  0  0  0  0  0  0  0  0  0  0
    4.9671    1.9203   -1.6865 H   0  0  0  0  0  0  0  0  0  0  0  0
    3.6910   -1.6223   -1.9296 H   0  0  0  0  0  0  0  0  0  0  0  0
    1.2228   -1.4568   -1.7146 H   0  0  0  0  0  0  0  0  0  0  0  0
    4.2565    1.1293    1.3452 H   0  0  0  0  0  0  0  0  0  0  0  0
    2.3094    2.7697    3.1995 H   0  0  0  0  0  0  0  0  0  0  0  0
    0.1797    3.5774    4.1334 H   0  0  0  0  0  0  0  0  0  0  0  0
   -2.0266    2.8651    3.3055 H   0  0  0  0  0  0  0  0  0  0  0  0
   -4.1323    1.3136    1.5506 H   0  0  0  0  0  0  0  0  0  0  0  0
   -7.6905   -0.7674   -1.6918 H   0  0  0  0  0  0  0  0  0  0  0  0
   -8.8074   -2.9748   -1.8216 H   0  0  0  0  0  0  0  0  0  0  0  0
   -7.9524   -4.9040   -0.4812 H   0  0  0  0  0  0  0  0  0  0  0  0
   -5.9667   -4.5789    1.0021 H   0  0  0  0  0  0  0  0  0  0  0  0
   -4.8679   -2.3632    1.1550 H   0  0  0  0  0  0  0  0  0  0  0  0
   -4.9538    2.1361   -1.4451 H   0  0  0  0  0  0  0  0  0  0  0  0
   -6.2623    4.2397   -1.3994 H   0  0  0  0  0  0  0  0  0  0  0  0
   -8.4001    4.3692   -0.1100 H   0  0  0  0  0  0  0  0  0  0  0  0
   -9.1948    2.3595    1.1465 H   0  0  0  0  0  0  0  0  0  0  0  0
   -7.8712    0.2656    1.1252 H   0  0  0  0  0  0  0  0  0  0  0  0
   -3.8490   -1.4580   -1.7438 H   0  0  0  0  0  0  0  0  0  0  0  0
   -1.3682   -1.4009   -1.6503 H   0  0  0  0  0  0  0  0  0  0  0  0
    7.5566   -1.0976   -2.0681 H   0  0  0  0  0  0  0  0  0  0  0  0
    8.5682   -3.3512   -2.2557 H   0  0  0  0  0  0  0  0  0  0  0  0
  1  2  2  0
  1 45  1  0
  1 46  1  0
  2  3  1  0
  2 47  1  0
  3  4  2  0
  3 48  1  0
  4  5  1  0
  4 44  1  0
  5  6  1  0
  5 12  1  0
  6  7  2  0
  6 11  1  0
  7  8  1  0
  7 49  1  0
  8  9  2  0
  8 50  1  0
  9 10  1  0
  9 51  1  0
 10 11  2  0
 10 52  1  0
 11 53  1  0
 12 13  2  0
 12 17  1  0
 13 14  1  0
 13 54  1  0
 14 15  2  0
 14 55  1  0
 15 16  1  0
 15 42  1  0
 16 17  2  0
 16 18  1  0
 17 56  1  0
 18 19  2  0
 18 43  1  0
 19 20  1  0
 19 57  1  0
 20 21  2  0
 20 58  1  0
 21 22  1  0
 21 59  1  0
 22 23  1  0
 22 43  2  0
 23 24  1  0
 23 41  2  0
 24 25  2  0
 24 60  1  0
 25 26  1  0
 25 39  1  0
 26 27  1  0
 26 33  1  0
 27 28  2  0
 27 32  1  0
 28 29  1  0
 28 61  1  0
 29 30  2  0
 29 62  1  0
 30 31  1  0
 30 63  1  0
 31 32  2  0
 31 64  1  0
 32 65  1  0
 33 34  2  0
 33 38  1  0
 34 35  1  0
 34 66  1  0
 35 36  2  0
 35 67  1  0
 36 37  1  0
 36 68  1  0
 37 38  2  0
 37 69  1  0
 38 70  1  0
 39 40  2  0
 39 71  1  0
 40 41  1  0
 40 72  1  0
 41 42  1  0
 42 43  1  0
 44 45  2  0
 44 73  1  0
 45 74  1  0
M  END

