
     RDKit          3D

 47 51  0  0  0  0  0  0  0  0999 V2000
    7.6421   -0.1573    3.1603 F   0  0  0  0  0  0  0  0  0  0  0  0
    7.4052   -0.4612    1.8702 C   0  0  1  0  0  0  0  0  0  0  0  0
    8.1428    0.3627    1.1170 F   0  0  0  0  0  0  0  0  0  0  0  0
    7.8405   -1.7092    1.6603 F   0  0  0  0  0  0  0  0  0  0  0  0
    5.9258   -0.3317    1.5449 C   0  0  0  0  0  0  0  0  0  0  0  0
    4.9932    0.0672    2.5033 C   0  0  0  0  0  0  0  0  0  0  0  0
    3.6574    0.1335    2.1145 C   0  0  0  0  0  0  0  0  0  0  0  0
    3.2681   -0.1870    0.8021 C   0  0  0  0  0  0  0  0  0  0  0  0
    1.8217   -0.1261    0.4504 C   0  0  0  0  0  0  0  0  0  0  0  0
    1.1425   -1.2234   -0.1072 C   0  0  0  0  0  0  0  0  0  0  0  0
   -0.2258   -1.1625   -0.3640 C   0  0  0  0  0  0  0  0  0  0  0  0
   -0.9510    0.0079   -0.0914 C   0  0  0  0  0  0  0  0  0  0  0  0
   -2.3375    0.0749   -0.3695 N   0  0  0  0  0  0  0  0  0  0  0  0
   -3.3414    0.4239    0.5426 C   0  0  0  0  0  0  0  0  0  0  0  0
   -3.2416    0.7415    1.9033 C   0  0  0  0  0  0  0  0  0  0  0  0
   -4.4195    1.0310    2.5940 C   0  0  0  0  0  0  0  0  0  0  0  0
   -5.6720    1.0018    1.9532 C   0  0  0  0  0  0  0  0  0  0  0  0
   -5.7686    0.6708    0.6023 C   0  0  0  0  0  0  0  0  0  0  0  0
   -4.6003    0.3753   -0.1148 C   0  0  0  0  0  0  0  0  0  0  0  0
   -4.3424   -0.0178   -1.4867 C   0  0  0  0  0  0  0  0  0  0  0  0
   -5.1640   -0.2159   -2.6058 C   0  0  0  0  0  0  0  0  0  0  0  0
   -4.5825   -0.5784   -3.8198 C   0  0  0  0  0  0  0  0  0  0  0  0
   -3.1880   -0.7352   -3.9261 C   0  0  0  0  0  0  0  0  0  0  0  0
   -2.3479   -0.5445   -2.8279 C   0  0  0  0  0  0  0  0  0  0  0  0
   -2.9379   -0.1954   -1.6065 C   0  0  0  0  0  0  0  0  0  0  0  0
   -0.2805    1.1109    0.4595 C   0  0  0  0  0  0  0  0  0  0  0  0
    1.0831    1.0356    0.7388 C   0  0  0  0  0  0  0  0  0  0  0  0
    4.3189   -0.5403   -0.0821 C   0  0  0  0  0  0  0  0  0  0  0  0
    4.0886   -0.8657   -1.5598 C   0  0  1  0  0  0  0  0  0  0  0  0
    5.2062   -0.7468   -2.2682 F   0  0  0  0  0  0  0  0  0  0  0  0
    3.6469   -2.1341   -1.7094 F   0  0  0  0  0  0  0  0  0  0  0  0
    3.1689   -0.0545   -2.1081 F   0  0  0  0  0  0  0  0  0  0  0  0
    5.5896   -0.6165    0.2926 N   0  0  0  0  0  0  0  0  0  0  0  0
    5.3014    0.3060    3.5214 H   0  0  0  0  0  0  0  0  0  0  0  0
    2.8917    0.4157    2.8403 H   0  0  0  0  0  0  0  0  0  0  0  0
    1.6838   -2.1449   -0.3242 H   0  0  0  0  0  0  0  0  0  0  0  0
   -0.7438   -2.0340   -0.7680 H   0  0  0  0  0  0  0  0  0  0  0  0
   -2.2779    0.7573    2.4144 H   0  0  0  0  0  0  0  0  0  0  0  0
   -4.3646    1.2826    3.6562 H   0  0  0  0  0  0  0  0  0  0  0  0
   -6.5748    1.2352    2.5224 H   0  0  0  0  0  0  0  0  0  0  0  0
   -6.7428    0.6375    0.1081 H   0  0  0  0  0  0  0  0  0  0  0  0
   -6.2460   -0.0832   -2.5269 H   0  0  0  0  0  0  0  0  0  0  0  0
   -5.2116   -0.7368   -4.6989 H   0  0  0  0  0  0  0  0  0  0  0  0
   -2.7493   -1.0091   -4.8889 H   0  0  0  0  0  0  0  0  0  0  0  0
   -1.2674   -0.6582   -2.9268 H   0  0  0  0  0  0  0  0  0  0  0  0
   -0.8297    2.0338    0.6532 H   0  0  0  0  0  0  0  0  0  0  0  0
    1.5903    1.9092    1.1555 H   0  0  0  0  0  0  0  0  0  0  0  0
  2  1  1  1
  2  3  1  0
  2  4  1  0
  2  5  1  0
  5  6  2  0
  5 33  1  0
  6  7  1  0
  6 34  1  0
  7  8  2  0
  7 35  1  0
  8  9  1  0
  8 28  1  0
  9 10  2  0
  9 27  1  0
 10 11  1  0
 10 36  1  0
 11 12  2  0
 11 37  1  0
 12 13  1  0
 12 26  1  0
 13 14  1  0
 13 25  1  0
 14 15  2  0
 14 19  1  0
 15 16  1  0
 15 38  1  0
 16 17  2  0
 16 39  1  0
 17 18  1  0
 17 40  1  0
 18 19  2  0
 18 41  1  0
 19 20  1  0
 20 21  1  0
 20 25  2  0
 21 22  2  0
 21 42  1  0
 22 23  1  0
 22 43  1  0
 23 24  2  0
 23 44  1  0
 24 25  1  0
 24 45  1  0
 26 27  2  0
 26 46  1  0
 27 47  1  0
 28 29  1  0
 28 33  2  0
 29 30  1  6
 29 31  1  0
 29 32  1  0
M  END

