
     RDKit          3D

 70 73  0  0  0  0  0  0  0  0999 V2000
    5.4212    5.5321    3.7487 C   0  0  0  0  0  0  0  0  0  0  0  0
    6.4689    4.4428    3.9910 C   0  0  1  0  0  0  0  0  0  0  0  0
    7.7038    4.9832    4.7225 C   0  0  0  0  0  0  0  0  0  0  0  0
    5.8906    3.2547    4.7821 C   0  0  0  0  0  0  0  0  0  0  0  0
    4.7409    2.6015    4.1498 N   0  0  0  0  0  0  0  0  0  0  0  0
    4.9600    1.6506    3.0594 C   0  0  0  0  0  0  0  0  0  0  0  0
    4.3515    2.0700    1.7118 C   0  0  1  0  0  0  0  0  0  0  0  0
    3.3077    2.3499    1.9050 H   0  0  0  0  0  0  0  0  0  0  0  0
    4.9565    3.2370    1.1694 O   0  0  0  0  0  0  0  0  0  0  0  0
    4.3291    0.9294    0.6660 C   0  0  2  0  0  0  0  0  0  0  0  0
    3.7338    0.0956    1.0683 H   0  0  0  0  0  0  0  0  0  0  0  0
    5.7402    0.4000    0.3020 C   0  0  0  0  0  0  0  0  0  0  0  0
    5.7451   -0.7309   -0.7026 C   0  0  0  0  0  0  0  0  0  0  0  0
    5.9045   -0.4810   -2.0741 C   0  0  0  0  0  0  0  0  0  0  0  0
    5.8901   -1.5267   -3.0015 C   0  0  0  0  0  0  0  0  0  0  0  0
    5.7181   -2.8446   -2.5699 C   0  0  0  0  0  0  0  0  0  0  0  0
    5.5589   -3.1083   -1.2061 C   0  0  0  0  0  0  0  0  0  0  0  0
    5.5719   -2.0597   -0.2836 C   0  0  0  0  0  0  0  0  0  0  0  0
    3.6184    1.4067   -0.5051 N   0  0  0  0  0  0  0  0  0  0  0  0
    2.5210    0.7824   -1.0089 C   0  0  0  0  0  0  0  0  0  0  0  0
    2.0586   -0.2716   -0.6206 O   0  0  0  0  0  0  0  0  0  0  0  0
    1.9975    1.5052   -2.0332 O   0  0  0  0  0  0  0  0  0  0  0  0
    0.8215    0.9579   -2.6484 C   0  0  0  0  0  0  0  0  0  0  0  0
    1.1175   -0.0506   -3.7144 C   0  0  0  0  0  0  0  0  0  0  0  0
    1.0214    0.1211   -5.0758 C   0  0  0  0  0  0  0  0  0  0  0  0
    1.3307   -0.9609   -5.8536 N   0  0  0  0  0  0  0  0  0  0  0  0
    1.6673   -1.9720   -5.1058 C   0  0  0  0  0  0  0  0  0  0  0  0
    1.6348   -1.6826   -3.3906 S   0  0  0  0  0  0  0  0  0  0  0  0
    3.3000    2.4678    5.0148 S   0  0  1  0  0  0  0  0  0  0  0  0
    3.2300    3.6369    5.8922 O   0  0  0  0  0  0  0  0  0  0  0  0
    2.2591    2.1726    4.0245 O   0  0  0  0  0  0  0  0  0  0  0  0
    3.4460    1.0120    6.0555 C   0  0  0  0  0  0  0  0  0  0  0  0
    4.1037    1.1087    7.2957 C   0  0  0  0  0  0  0  0  0  0  0  0
    4.2510   -0.0177    8.0988 C   0  0  0  0  0  0  0  0  0  0  0  0
    3.7307   -1.2523    7.6709 C   0  0  0  0  0  0  0  0  0  0  0  0
    3.8046   -2.4357    8.3675 N   0  0  0  0  0  0  0  0  0  0  0  0
    3.2119   -3.3957    7.7255 C   0  0  0  0  0  0  0  0  0  0  0  0
    3.0990   -4.6653    8.1856 N   0  0  0  0  0  0  0  0  0  0  0  0
    2.4792   -2.9552    6.1555 S   0  0  0  0  0  0  0  0  0  0  0  0
    3.0518   -1.3136    6.4210 C   0  0  0  0  0  0  0  0  0  0  0  0
    2.8976   -0.1952    5.6054 C   0  0  0  0  0  0  0  0  0  0  0  0
    5.8586    6.3772    3.1929 H   0  0  0  0  0  0  0  0  0  0  0  0
    5.0239    5.9173    4.7023 H   0  0  0  0  0  0  0  0  0  0  0  0
    4.5794    5.1402    3.1618 H   0  0  0  0  0  0  0  0  0  0  0  0
    6.7998    4.0645    3.0059 H   0  0  0  0  0  0  0  0  0  0  0  0
    7.4315    5.3824    5.7146 H   0  0  0  0  0  0  0  0  0  0  0  0
    8.1723    5.8021    4.1545 H   0  0  0  0  0  0  0  0  0  0  0  0
    8.4671    4.2018    4.8750 H   0  0  0  0  0  0  0  0  0  0  0  0
    5.5639    3.6274    5.7629 H   0  0  0  0  0  0  0  0  0  0  0  0
    6.6853    2.5051    4.9639 H   0  0  0  0  0  0  0  0  0  0  0  0
    4.5619    0.6548    3.3275 H   0  0  0  0  0  0  0  0  0  0  0  0
    6.0510    1.5205    2.9619 H   0  0  0  0  0  0  0  0  0  0  0  0
    5.9108    3.0970    1.1026 H   0  0  0  0  0  0  0  0  0  0  0  0
    6.2367    0.0598    1.2257 H   0  0  0  0  0  0  0  0  0  0  0  0
    6.3405    1.2370   -0.0948 H   0  0  0  0  0  0  0  0  0  0  0  0
    6.0418    0.5467   -2.4214 H   0  0  0  0  0  0  0  0  0  0  0  0
    6.0152   -1.3099   -4.0655 H   0  0  0  0  0  0  0  0  0  0  0  0
    5.7105   -3.6640   -3.2933 H   0  0  0  0  0  0  0  0  0  0  0  0
    5.4250   -4.1359   -0.8582 H   0  0  0  0  0  0  0  0  0  0  0  0
    5.4471   -2.2774    0.7815 H   0  0  0  0  0  0  0  0  0  0  0  0
    3.8297    2.3443   -0.8312 H   0  0  0  0  0  0  0  0  0  0  0  0
    0.3135    1.8173   -3.1071 H   0  0  0  0  0  0  0  0  0  0  0  0
    0.1766    0.5305   -1.8672 H   0  0  0  0  0  0  0  0  0  0  0  0
    0.7119    1.0563   -5.5492 H   0  0  0  0  0  0  0  0  0  0  0  0
    1.9647   -2.9483   -5.4977 H   0  0  0  0  0  0  0  0  0  0  0  0
    4.4730    2.0781    7.6336 H   0  0  0  0  0  0  0  0  0  0  0  0
    4.7512    0.0395    9.0672 H   0  0  0  0  0  0  0  0  0  0  0  0
    3.6173   -4.9025    9.0231 H   0  0  0  0  0  0  0  0  0  0  0  0
    2.7951   -5.4149    7.5802 H   0  0  0  0  0  0  0  0  0  0  0  0
    2.3485   -0.2278    4.6636 H   0  0  0  0  0  0  0  0  0  0  0  0
  1  2  1  0
  1 42  1  0
  1 43  1  0
  1 44  1  0
  2  3  1  0
  2  4  1  0
  2 45  1  6
  3 46  1  0
  3 47  1  0
  3 48  1  0
  4  5  1  0
  4 49  1  0
  4 50  1  0
  5  6  1  0
 29  5  1  6
  6  7  1  0
  6 51  1  0
  6 52  1  0
  7  8  1  1
  7  9  1  0
  7 10  1  0
  9 53  1  0
 10 11  1  1
 10 12  1  0
 10 19  1  0
 12 13  1  0
 12 54  1  0
 12 55  1  0
 13 14  2  0
 13 18  1  0
 14 15  1  0
 14 56  1  0
 15 16  2  0
 15 57  1  0
 16 17  1  0
 16 58  1  0
 17 18  2  0
 17 59  1  0
 18 60  1  0
 19 20  1  0
 19 61  1  0
 20 21  2  0
 20 22  1  0
 22 23  1  0
 23 24  1  0
 23 62  1  0
 23 63  1  0
 24 25  2  0
 24 28  1  0
 25 26  1  0
 25 64  1  0
 26 27  2  0
 27 28  1  0
 27 65  1  0
 29 30  2  0
 29 31  2  0
 29 32  1  0
 32 33  2  0
 32 41  1  0
 33 34  1  0
 33 66  1  0
 34 35  2  0
 34 67  1  0
 35 36  1  0
 35 40  1  0
 36 37  2  0
 37 38  1  0
 37 39  1  0
 38 68  1  0
 38 69  1  0
 39 40  1  0
 40 41  2  0
 41 70  1  0
M  END

