
     RDKit          3D

 30 31  0  0  0  0  0  0  0  0999 V2000
   -0.1296   -0.0708   -0.7389 C   0  0  0  0  0  0  0  0  0  0  0  0
    1.2368   -0.2668   -0.0820 C   0  0  1  0  0  0  0  0  0  0  0  0
    1.6703   -1.6287   -0.1995 N   0  0  0  0  0  0  0  0  0  0  0  0
    2.7096   -2.1824    0.5442 C   0  0  0  0  0  0  0  0  0  0  0  0
    3.2240   -3.4408    0.1613 C   0  0  0  0  0  0  0  0  0  0  0  0
    4.2318   -4.0507    0.9020 C   0  0  0  0  0  0  0  0  0  0  0  0
    4.7653   -3.4392    2.0420 C   0  0  0  0  0  0  0  0  0  0  0  0
    4.2583   -2.1926    2.4101 C   0  0  0  0  0  0  0  0  0  0  0  0
    4.9099   -1.3879    3.8244 Cl  0  0  0  0  0  0  0  0  0  0  0  0
    3.2503   -1.5527    1.6835 C   0  0  0  0  0  0  0  0  0  0  0  0
    2.2292    0.6946   -0.6296 N   0  0  0  0  0  0  0  0  0  0  0  0
    2.7830    1.7271    0.1317 C   0  0  0  0  0  0  0  0  0  0  0  0
    2.4967    1.9588    1.2820 O   0  0  0  0  0  0  0  0  0  0  0  0
    3.7821    2.4724   -0.7474 C   0  0  0  0  0  0  0  0  0  0  0  0
    3.7542    1.7444   -2.0964 C   0  0  0  0  0  0  0  0  0  0  0  0
    2.7321    0.6240   -1.9268 C   0  0  0  0  0  0  0  0  0  0  0  0
    2.3992   -0.1972   -2.7510 O   0  0  0  0  0  0  0  0  0  0  0  0
   -0.8640   -0.7363   -0.2626 H   0  0  0  0  0  0  0  0  0  0  0  0
   -0.0846   -0.3022   -1.8134 H   0  0  0  0  0  0  0  0  0  0  0  0
   -0.4667    0.9690   -0.6177 H   0  0  0  0  0  0  0  0  0  0  0  0
    1.1660    0.0056    0.9800 H   0  0  0  0  0  0  0  0  0  0  0  0
    1.5826   -2.0011   -1.1399 H   0  0  0  0  0  0  0  0  0  0  0  0
    2.8158   -3.9383   -0.7225 H   0  0  0  0  0  0  0  0  0  0  0  0
    4.6125   -5.0261    0.5878 H   0  0  0  0  0  0  0  0  0  0  0  0
    5.5543   -3.9103    2.6286 H   0  0  0  0  0  0  0  0  0  0  0  0
    2.9106   -0.5716    2.0140 H   0  0  0  0  0  0  0  0  0  0  0  0
    4.7637    2.4538   -0.2502 H   0  0  0  0  0  0  0  0  0  0  0  0
    3.4768    3.5285   -0.8052 H   0  0  0  0  0  0  0  0  0  0  0  0
    4.7185    1.2955   -2.3792 H   0  0  0  0  0  0  0  0  0  0  0  0
    3.4416    2.3789   -2.9398 H   0  0  0  0  0  0  0  0  0  0  0  0
  1  2  1  0
  1 18  1  0
  1 19  1  0
  1 20  1  0
  2  3  1  0
  2 11  1  0
  2 21  1  1
  3  4  1  0
  3 22  1  0
  4  5  2  0
  4 10  1  0
  5  6  1  0
  5 23  1  0
  6  7  2  0
  6 24  1  0
  7  8  1  0
  7 25  1  0
  8  9  1  0
  8 10  2  0
 10 26  1  0
 11 12  1  0
 11 16  1  0
 12 13  2  0
 12 14  1  0
 14 15  1  0
 14 27  1  0
 14 28  1  0
 15 16  1  0
 15 29  1  0
 15 30  1  0
 16 17  2  0
M  END

