
     RDKit          3D

 82 83  0  0  0  0  0  0  0  0999 V2000
    8.4521    0.4957    5.1224 C   0  0  0  0  0  0  0  0  0  0  0  0
    8.4749   -0.4626    3.9286 C   0  0  0  0  0  0  0  0  0  0  0  0
    8.9820    0.1783    2.6187 C   0  0  2  0  0  0  0  0  0  0  0  0
    7.9675    1.1590    2.0155 C   0  0  0  0  0  0  0  0  0  0  0  0
    9.4205   -0.8705    1.5532 C   0  0  2  0  0  0  0  0  0  0  0  0
    9.6647   -0.3149    0.6460 H   0  0  0  0  0  0  0  0  0  0  0  0
    8.3476   -1.7986    1.2447 N   0  0  0  0  0  0  0  0  0  0  0  0
    8.0089   -2.4177    0.0756 C   0  0  0  0  0  0  0  0  0  0  0  0
    7.1033   -3.2376    0.0454 O   0  0  0  0  0  0  0  0  0  0  0  0
    8.7755   -2.1480   -1.2511 C   0  0  1  0  0  0  0  0  0  0  0  0
    8.1158   -2.6664   -1.9635 H   0  0  0  0  0  0  0  0  0  0  0  0
    8.7717   -0.7431   -1.6948 N   0  0  0  0  0  0  0  0  0  0  0  0
    9.7541    0.2000   -1.7182 C   0  0  0  0  0  0  0  0  0  0  0  0
   10.8564    0.0576   -1.1876 O   0  0  0  0  0  0  0  0  0  0  0  0
    9.3676    1.4811   -2.4729 C   0  0  2  0  0  0  0  0  0  0  0  0
    8.2775    1.5969   -2.3647 H   0  0  0  0  0  0  0  0  0  0  0  0
    9.6037    1.3590   -4.0093 C   0  0  0  0  0  0  0  0  0  0  0  0
   10.9964    1.6015   -4.5684 C   0  0  0  0  0  0  0  0  0  0  0  0
   12.1522    1.0064   -4.0321 C   0  0  0  0  0  0  0  0  0  0  0  0
   13.4049    1.2232   -4.6144 C   0  0  0  0  0  0  0  0  0  0  0  0
   13.5328    2.0348   -5.7453 C   0  0  0  0  0  0  0  0  0  0  0  0
   12.3937    2.6341   -6.2889 C   0  0  0  0  0  0  0  0  0  0  0  0
   11.1432    2.4194   -5.7023 C   0  0  0  0  0  0  0  0  0  0  0  0
   10.0138    2.7071   -1.8144 C   0  0  0  0  0  0  0  0  0  0  0  0
    9.5982    4.0376   -2.4420 C   0  0  1  0  0  0  0  0  0  0  0  0
   10.0610    4.1247   -3.4435 H   0  0  0  0  0  0  0  0  0  0  0  0
    8.1733    4.0266   -2.5708 O   0  0  0  0  0  0  0  0  0  0  0  0
   10.0280    5.2766   -1.6254 C   0  0  1  0  0  0  0  0  0  0  0  0
    9.6729    6.1517   -2.2219 H   0  0  0  0  0  0  0  0  0  0  0  0
    9.4191    5.2169   -0.3044 N   0  0  0  0  0  0  0  0  0  0  0  0
   11.5602    5.4190   -1.5194 C   0  0  0  0  0  0  0  0  0  0  0  0
   11.9998    6.7205   -0.8838 C   0  0  0  0  0  0  0  0  0  0  0  0
   12.2059    6.8140    0.5032 C   0  0  0  0  0  0  0  0  0  0  0  0
   12.5781    8.0250    1.0951 C   0  0  0  0  0  0  0  0  0  0  0  0
   12.7532    9.1675    0.3090 C   0  0  0  0  0  0  0  0  0  0  0  0
   12.5541    9.0891   -1.0729 C   0  0  0  0  0  0  0  0  0  0  0  0
   12.1811    7.8773   -1.6605 C   0  0  0  0  0  0  0  0  0  0  0  0
   10.1449   -2.8739   -1.3364 C   0  0  1  0  0  0  0  0  0  0  0  0
   10.0496   -4.2893   -0.7471 C   0  0  0  0  0  0  0  0  0  0  0  0
   10.6316   -2.9243   -2.7908 C   0  0  0  0  0  0  0  0  0  0  0  0
   10.6999   -1.6058    2.0050 C   0  0  0  0  0  0  0  0  0  0  0  0
   11.8377   -1.1110    1.4433 N   0  0  0  0  0  0  0  0  0  0  0  0
   10.6839   -2.5143    2.8194 O   0  0  0  0  0  0  0  0  0  0  0  0
    8.0957   -0.0166    6.0301 H   0  0  0  0  0  0  0  0  0  0  0  0
    7.7911    1.3613    4.9547 H   0  0  0  0  0  0  0  0  0  0  0  0
    9.4611    0.8854    5.3380 H   0  0  0  0  0  0  0  0  0  0  0  0
    7.4547   -0.8584    3.7682 H   0  0  0  0  0  0  0  0  0  0  0  0
    9.1109   -1.3276    4.1726 H   0  0  0  0  0  0  0  0  0  0  0  0
    9.9010    0.7428    2.8602 H   0  0  0  0  0  0  0  0  0  0  0  0
    7.0655    0.6264    1.6731 H   0  0  0  0  0  0  0  0  0  0  0  0
    8.3917    1.6982    1.1536 H   0  0  0  0  0  0  0  0  0  0  0  0
    7.6535    1.9150    2.7508 H   0  0  0  0  0  0  0  0  0  0  0  0
    7.8524   -2.1990    2.0372 H   0  0  0  0  0  0  0  0  0  0  0  0
    7.8957   -0.4536   -2.1144 H   0  0  0  0  0  0  0  0  0  0  0  0
    8.9161    2.0700   -4.4919 H   0  0  0  0  0  0  0  0  0  0  0  0
    9.2599    0.3574   -4.3263 H   0  0  0  0  0  0  0  0  0  0  0  0
   12.0779    0.3836   -3.1395 H   0  0  0  0  0  0  0  0  0  0  0  0
   14.2894    0.7520   -4.1774 H   0  0  0  0  0  0  0  0  0  0  0  0
   14.5135    2.2002   -6.1986 H   0  0  0  0  0  0  0  0  0  0  0  0
   12.4767    3.2725   -7.1726 H   0  0  0  0  0  0  0  0  0  0  0  0
   10.2579    2.8923   -6.1385 H   0  0  0  0  0  0  0  0  0  0  0  0
   11.1080    2.6130   -1.8581 H   0  0  0  0  0  0  0  0  0  0  0  0
    9.7451    2.7298   -0.7473 H   0  0  0  0  0  0  0  0  0  0  0  0
    7.9104    4.8060   -3.0782 H   0  0  0  0  0  0  0  0  0  0  0  0
    8.4147    5.0685   -0.4064 H   0  0  0  0  0  0  0  0  0  0  0  0
    9.5503    6.0956    0.1948 H   0  0  0  0  0  0  0  0  0  0  0  0
   11.9882    5.3422   -2.5328 H   0  0  0  0  0  0  0  0  0  0  0  0
   11.9508    4.5741   -0.9320 H   0  0  0  0  0  0  0  0  0  0  0  0
   12.0737    5.9230    1.1232 H   0  0  0  0  0  0  0  0  0  0  0  0
   12.7371    8.0742    2.1757 H   0  0  0  0  0  0  0  0  0  0  0  0
   13.0489   10.1134    0.7700 H   0  0  0  0  0  0  0  0  0  0  0  0
   12.6957    9.9751   -1.6976 H   0  0  0  0  0  0  0  0  0  0  0  0
   12.0361    7.8247   -2.7439 H   0  0  0  0  0  0  0  0  0  0  0  0
   10.8816   -2.3083   -0.7524 H   0  0  0  0  0  0  0  0  0  0  0  0
    9.2515   -4.8778   -1.2279 H   0  0  0  0  0  0  0  0  0  0  0  0
    9.8506   -4.2752    0.3346 H   0  0  0  0  0  0  0  0  0  0  0  0
   11.0028   -4.8194   -0.8991 H   0  0  0  0  0  0  0  0  0  0  0  0
    9.9342   -3.5035   -3.4202 H   0  0  0  0  0  0  0  0  0  0  0  0
   11.6160   -3.4150   -2.8486 H   0  0  0  0  0  0  0  0  0  0  0  0
   10.7404   -1.9239   -3.2342 H   0  0  0  0  0  0  0  0  0  0  0  0
   11.7836   -0.5441    0.5987 H   0  0  0  0  0  0  0  0  0  0  0  0
   12.7110   -1.5760    1.6675 H   0  0  0  0  0  0  0  0  0  0  0  0
  1  2  1  0
  1 44  1  0
  1 45  1  0
  1 46  1  0
  2  3  1  0
  2 47  1  0
  2 48  1  0
  3  4  1  0
  3  5  1  0
  3 49  1  1
  4 50  1  0
  4 51  1  0
  4 52  1  0
  5  6  1  6
  5  7  1  0
  5 41  1  0
  7  8  1  0
  7 53  1  0
  8  9  2  0
  8 10  1  0
 10 11  1  6
 10 12  1  0
 10 38  1  0
 12 13  1  0
 12 54  1  0
 13 14  2  0
 13 15  1  0
 15 16  1  6
 15 17  1  0
 15 24  1  0
 17 18  1  0
 17 55  1  0
 17 56  1  0
 18 19  2  0
 18 23  1  0
 19 20  1  0
 19 57  1  0
 20 21  2  0
 20 58  1  0
 21 22  1  0
 21 59  1  0
 22 23  2  0
 22 60  1  0
 23 61  1  0
 24 25  1  0
 24 62  1  0
 24 63  1  0
 25 26  1  6
 25 27  1  0
 25 28  1  0
 27 64  1  0
 28 29  1  6
 28 30  1  0
 28 31  1  0
 30 65  1  0
 30 66  1  0
 31 32  1  0
 31 67  1  0
 31 68  1  0
 32 33  2  0
 32 37  1  0
 33 34  1  0
 33 69  1  0
 34 35  2  0
 34 70  1  0
 35 36  1  0
 35 71  1  0
 36 37  2  0
 36 72  1  0
 37 73  1  0
 38 39  1  0
 38 40  1  0
 38 74  1  1
 39 75  1  0
 39 76  1  0
 39 77  1  0
 40 78  1  0
 40 79  1  0
 40 80  1  0
 41 42  1  0
 41 43  2  0
 42 81  1  0
 42 82  1  0
M  END

