
     RDKit          3D

104117  0  0  0  0  0  0  0  0999 V2000
    3.6482   -3.6916    3.2717 N   0  0  0  0  0  0  0  0  0  0  0  0
    3.2098   -2.7471    2.7586 C   0  0  0  0  0  0  0  0  0  0  0  0
    2.6213   -1.6086    2.1139 C   0  0  0  0  0  0  0  0  0  0  0  0
    1.2448   -1.6142    1.8396 C   0  0  0  0  0  0  0  0  0  0  0  0
    0.6081   -0.5788    1.1415 C   0  0  0  0  0  0  0  0  0  0  0  0
   -0.8583   -0.7095    0.8765 C   0  0  0  0  0  0  0  0  0  0  0  0
   -1.7178   -0.8230    1.9778 C   0  0  0  0  0  0  0  0  0  0  0  0
   -3.1118   -0.9189    1.8443 C   0  0  0  0  0  0  0  0  0  0  0  0
   -3.9265   -0.9460    3.0248 C   0  0  0  0  0  0  0  0  0  0  0  0
   -4.5498   -0.9545    4.0040 N   0  0  0  0  0  0  0  0  0  0  0  0
   -3.6799   -0.9355    0.5491 C   0  0  0  0  0  0  0  0  0  0  0  0
   -5.0740   -1.0500    0.3592 N   0  0  0  0  0  0  0  0  0  0  0  0
   -5.8598   -2.1734    0.6645 C   0  0  0  0  0  0  0  0  0  0  0  0
   -5.4908   -3.3801    1.2674 C   0  0  0  0  0  0  0  0  0  0  0  0
   -6.4795   -4.3509    1.4354 C   0  0  0  0  0  0  0  0  0  0  0  0
   -7.8024   -4.1306    1.0102 C   0  0  0  0  0  0  0  0  0  0  0  0
   -8.1607   -2.9304    0.3979 C   0  0  0  0  0  0  0  0  0  0  0  0
   -7.1858   -1.9393    0.2158 C   0  0  0  0  0  0  0  0  0  0  0  0
   -7.2008   -0.6207   -0.3908 C   0  0  0  0  0  0  0  0  0  0  0  0
   -8.2007    0.1588   -0.9892 C   0  0  0  0  0  0  0  0  0  0  0  0
   -7.8761    1.4258   -1.4736 C   0  0  0  0  0  0  0  0  0  0  0  0
   -6.5654    1.9236   -1.3575 C   0  0  0  0  0  0  0  0  0  0  0  0
   -5.5520    1.1692   -0.7630 C   0  0  0  0  0  0  0  0  0  0  0  0
   -5.8815   -0.1063   -0.2920 C   0  0  0  0  0  0  0  0  0  0  0  0
   -2.8269   -0.8656   -0.5546 C   0  0  0  0  0  0  0  0  0  0  0  0
   -1.4341   -0.7627   -0.4179 C   0  0  0  0  0  0  0  0  0  0  0  0
   -0.6457   -0.7869   -1.5955 N   0  0  0  0  0  0  0  0  0  0  0  0
   -0.8475    0.0404   -2.7139 C   0  0  0  0  0  0  0  0  0  0  0  0
   -1.6266    1.1961   -2.8342 C   0  0  0  0  0  0  0  0  0  0  0  0
   -1.6414    1.8454   -4.0695 C   0  0  0  0  0  0  0  0  0  0  0  0
   -0.8913    1.3659   -5.1587 C   0  0  0  0  0  0  0  0  0  0  0  0
   -0.1044    0.2228   -5.0289 C   0  0  0  0  0  0  0  0  0  0  0  0
   -0.0790   -0.4510   -3.7998 C   0  0  0  0  0  0  0  0  0  0  0  0
    0.5961   -1.6462   -3.3312 C   0  0  0  0  0  0  0  0  0  0  0  0
    1.4505   -2.5725   -3.9460 C   0  0  0  0  0  0  0  0  0  0  0  0
    1.8807   -3.6850   -3.2235 C   0  0  0  0  0  0  0  0  0  0  0  0
    1.4474   -3.8876   -1.9010 C   0  0  0  0  0  0  0  0  0  0  0  0
    0.6006   -2.9764   -1.2663 C   0  0  0  0  0  0  0  0  0  0  0  0
    0.2025   -1.8413   -1.9808 C   0  0  0  0  0  0  0  0  0  0  0  0
    1.3911    0.5411    0.7642 C   0  0  0  0  0  0  0  0  0  0  0  0
    0.8226    1.6954    0.1700 N   0  0  0  0  0  0  0  0  0  0  0  0
    1.3071    2.3221   -0.9912 C   0  0  0  0  0  0  0  0  0  0  0  0
    2.2190    1.8487   -1.9408 C   0  0  0  0  0  0  0  0  0  0  0  0
    2.5212    2.6773   -3.0225 C   0  0  0  0  0  0  0  0  0  0  0  0
    1.9239    3.9428   -3.1659 C   0  0  0  0  0  0  0  0  0  0  0  0
    1.0043    4.4031   -2.2250 C   0  0  0  0  0  0  0  0  0  0  0  0
    0.6900    3.5919   -1.1257 C   0  0  0  0  0  0  0  0  0  0  0  0
   -0.1852    3.7581    0.0188 C   0  0  0  0  0  0  0  0  0  0  0  0
   -1.0170    4.8011    0.4506 C   0  0  0  0  0  0  0  0  0  0  0  0
   -1.6877    4.6772    1.6669 C   0  0  0  0  0  0  0  0  0  0  0  0
   -1.5172    3.5296    2.4616 C   0  0  0  0  0  0  0  0  0  0  0  0
   -0.6982    2.4759    2.0500 C   0  0  0  0  0  0  0  0  0  0  0  0
   -0.0575    2.5866    0.8112 C   0  0  0  0  0  0  0  0  0  0  0  0
    2.7662    0.5528    1.0436 C   0  0  0  0  0  0  0  0  0  0  0  0
    3.4009   -0.5025    1.7026 C   0  0  0  0  0  0  0  0  0  0  0  0
    4.7853   -0.4379    1.9713 N   0  0  0  0  0  0  0  0  0  0  0  0
    5.3757   -0.3186    3.2401 C   0  0  0  0  0  0  0  0  0  0  0  0
    4.7755   -0.3044    4.5031 C   0  0  0  0  0  0  0  0  0  0  0  0
    5.6053   -0.1494    5.6146 C   0  0  0  0  0  0  0  0  0  0  0  0
    6.9980   -0.0068    5.4750 C   0  0  0  0  0  0  0  0  0  0  0  0
    7.5887   -0.0086    4.2122 C   0  0  0  0  0  0  0  0  0  0  0  0
    6.7770   -0.1611    3.0791 C   0  0  0  0  0  0  0  0  0  0  0  0
    7.0441   -0.1809    1.6525 C   0  0  0  0  0  0  0  0  0  0  0  0
    8.2132   -0.0857    0.8845 C   0  0  0  0  0  0  0  0  0  0  0  0
    8.1209   -0.1557   -0.5054 C   0  0  0  0  0  0  0  0  0  0  0  0
    6.8739   -0.3287   -1.1334 C   0  0  0  0  0  0  0  0  0  0  0  0
    5.6952   -0.4296   -0.3918 C   0  0  0  0  0  0  0  0  0  0  0  0
    5.7935   -0.3445    1.0011 C   0  0  0  0  0  0  0  0  0  0  0  0
    0.6606   -2.4824    2.1493 H   0  0  0  0  0  0  0  0  0  0  0  0
   -1.2966   -0.7951    2.9842 H   0  0  0  0  0  0  0  0  0  0  0  0
   -4.4680   -3.5641    1.6000 H   0  0  0  0  0  0  0  0  0  0  0  0
   -6.2173   -5.3001    1.9091 H   0  0  0  0  0  0  0  0  0  0  0  0
   -8.5529   -4.9102    1.1595 H   0  0  0  0  0  0  0  0  0  0  0  0
   -9.1866   -2.7648    0.0598 H   0  0  0  0  0  0  0  0  0  0  0  0
   -9.2221   -0.2210   -1.0714 H   0  0  0  0  0  0  0  0  0  0  0  0
   -8.6467    2.0421   -1.9424 H   0  0  0  0  0  0  0  0  0  0  0  0
   -6.3338    2.9231   -1.7339 H   0  0  0  0  0  0  0  0  0  0  0  0
   -4.5422    1.5704   -0.6617 H   0  0  0  0  0  0  0  0  0  0  0  0
   -3.2563   -0.9347   -1.5546 H   0  0  0  0  0  0  0  0  0  0  0  0
   -2.1991    1.5884   -1.9928 H   0  0  0  0  0  0  0  0  0  0  0  0
   -2.2447    2.7486   -4.1875 H   0  0  0  0  0  0  0  0  0  0  0  0
   -0.9245    1.8985   -6.1119 H   0  0  0  0  0  0  0  0  0  0  0  0
    0.4822   -0.1463   -5.8738 H   0  0  0  0  0  0  0  0  0  0  0  0
    1.7627   -2.4305   -4.9836 H   0  0  0  0  0  0  0  0  0  0  0  0
    2.5456   -4.4148   -3.6910 H   0  0  0  0  0  0  0  0  0  0  0  0
    1.7734   -4.7775   -1.3572 H   0  0  0  0  0  0  0  0  0  0  0  0
    0.2532   -3.1614   -0.2506 H   0  0  0  0  0  0  0  0  0  0  0  0
    2.6762    0.8626   -1.8507 H   0  0  0  0  0  0  0  0  0  0  0  0
    3.2326    2.3294   -3.7752 H   0  0  0  0  0  0  0  0  0  0  0  0
    2.1820    4.5662   -4.0251 H   0  0  0  0  0  0  0  0  0  0  0  0
    0.5367    5.3841   -2.3397 H   0  0  0  0  0  0  0  0  0  0  0  0
   -1.1253    5.7058   -0.1528 H   0  0  0  0  0  0  0  0  0  0  0  0
   -2.3379    5.4829    2.0154 H   0  0  0  0  0  0  0  0  0  0  0  0
   -2.0300    3.4590    3.4239 H   0  0  0  0  0  0  0  0  0  0  0  0
   -0.5562    1.6056    2.6895 H   0  0  0  0  0  0  0  0  0  0  0  0
    3.3528    1.4319    0.7749 H   0  0  0  0  0  0  0  0  0  0  0  0
    3.6965   -0.4122    4.6250 H   0  0  0  0  0  0  0  0  0  0  0  0
    5.1607   -0.1407    6.6128 H   0  0  0  0  0  0  0  0  0  0  0  0
    7.6194    0.1096    6.3659 H   0  0  0  0  0  0  0  0  0  0  0  0
    8.6696    0.1118    4.1052 H   0  0  0  0  0  0  0  0  0  0  0  0
    9.1844    0.0382    1.3699 H   0  0  0  0  0  0  0  0  0  0  0  0
    9.0249   -0.0820   -1.1143 H   0  0  0  0  0  0  0  0  0  0  0  0
    6.8241   -0.3918   -2.2233 H   0  0  0  0  0  0  0  0  0  0  0  0
    4.7343   -0.5811   -0.8866 H   0  0  0  0  0  0  0  0  0  0  0  0
  1  2  3  0
  2  3  1  0
  3  4  2  0
  3 55  1  0
  4  5  1  0
  4 69  1  0
  5  6  1  0
  5 40  2  0
  6  7  2  0
  6 26  1  0
  7  8  1  0
  7 70  1  0
  8  9  1  0
  8 11  2  0
  9 10  3  0
 11 12  1  0
 11 25  1  0
 12 13  1  0
 12 24  1  0
 13 14  2  0
 13 18  1  0
 14 15  1  0
 14 71  1  0
 15 16  2  0
 15 72  1  0
 16 17  1  0
 16 73  1  0
 17 18  2  0
 17 74  1  0
 18 19  1  0
 19 20  1  0
 19 24  2  0
 20 21  2  0
 20 75  1  0
 21 22  1  0
 21 76  1  0
 22 23  2  0
 22 77  1  0
 23 24  1  0
 23 78  1  0
 25 26  2  0
 25 79  1  0
 26 27  1  0
 27 28  1  0
 27 39  1  0
 28 29  2  0
 28 33  1  0
 29 30  1  0
 29 80  1  0
 30 31  2  0
 30 81  1  0
 31 32  1  0
 31 82  1  0
 32 33  2  0
 32 83  1  0
 33 34  1  0
 34 35  1  0
 34 39  2  0
 35 36  2  0
 35 84  1  0
 36 37  1  0
 36 85  1  0
 37 38  2  0
 37 86  1  0
 38 39  1  0
 38 87  1  0
 40 41  1  0
 40 54  1  0
 41 42  1  0
 41 53  1  0
 42 43  2  0
 42 47  1  0
 43 44  1  0
 43 88  1  0
 44 45  2  0
 44 89  1  0
 45 46  1  0
 45 90  1  0
 46 47  2  0
 46 91  1  0
 47 48  1  0
 48 49  1  0
 48 53  2  0
 49 50  2  0
 49 92  1  0
 50 51  1  0
 50 93  1  0
 51 52  2  0
 51 94  1  0
 52 53  1  0
 52 95  1  0
 54 55  2  0
 54 96  1  0
 55 56  1  0
 56 57  1  0
 56 68  1  0
 57 58  2  0
 57 62  1  0
 58 59  1  0
 58 97  1  0
 59 60  2  0
 59 98  1  0
 60 61  1  0
 60 99  1  0
 61 62  2  0
 61100  1  0
 62 63  1  0
 63 64  1  0
 63 68  2  0
 64 65  2  0
 64101  1  0
 65 66  1  0
 65102  1  0
 66 67  2  0
 66103  1  0
 67 68  1  0
 67104  1  0
M  END

