
     RDKit          3D

 36 37  0  0  0  0  0  0  0  0999 V2000
    1.5984    0.0260    1.6390 C   0  0  0  0  0  0  0  0  0  0  0  0
    2.9204   -0.2150    0.9693 C   0  0  0  0  0  0  0  0  0  0  0  0
    3.8580    0.7260    0.9901 N   0  0  0  0  0  0  0  0  0  0  0  0
    4.9351    0.1906    0.3810 N   0  0  0  0  0  0  0  0  0  0  0  0
    6.1387    0.9807    0.2264 C   0  0  0  0  0  0  0  0  0  0  0  0
    4.7321   -1.0928   -0.0164 C   0  0  0  0  0  0  0  0  0  0  0  0
    5.7853   -1.9195   -0.6784 C   0  0  0  0  0  0  0  0  0  0  0  0
    3.4109   -1.3948    0.3262 C   0  0  0  0  0  0  0  0  0  0  0  0
    2.8017   -2.7421    0.1650 C   0  0  0  0  0  0  0  0  0  0  0  0
    3.4000   -3.7650    0.4875 O   0  0  0  0  0  0  0  0  0  0  0  0
    1.5326   -2.8315   -0.3594 N   0  0  0  0  0  0  0  0  0  0  0  0
    0.7823   -1.8151   -1.1051 C   0  0  0  0  0  0  0  0  0  0  0  0
   -0.6278   -2.4180   -1.1748 C   0  0  2  0  0  0  0  0  0  0  0  0
   -1.3911   -2.1443   -0.0224 O   0  0  0  0  0  0  0  0  0  0  0  0
   -0.3238   -3.9156   -1.3583 C   0  0  0  0  0  0  0  0  0  0  0  0
    0.9343   -4.1619   -0.4843 C   0  0  2  0  0  0  0  0  0  0  0  0
    0.5838   -4.7975    0.8591 C   0  0  0  0  0  0  0  0  0  0  0  0
    0.5819   -5.9774    1.0779 O   0  0  0  0  0  0  0  0  0  0  0  0
    0.1842   -3.8833    1.7836 O   0  0  0  0  0  0  0  0  0  0  0  0
    1.7516    0.5462    2.5961 H   0  0  0  0  0  0  0  0  0  0  0  0
    1.0685   -0.9165    1.8327 H   0  0  0  0  0  0  0  0  0  0  0  0
    0.9384    0.6651    1.0282 H   0  0  0  0  0  0  0  0  0  0  0  0
    5.9534    1.9507    0.7022 H   0  0  0  0  0  0  0  0  0  0  0  0
    6.3806    1.1386   -0.8371 H   0  0  0  0  0  0  0  0  0  0  0  0
    6.9983    0.4953    0.7153 H   0  0  0  0  0  0  0  0  0  0  0  0
    6.7180   -1.9242   -0.0902 H   0  0  0  0  0  0  0  0  0  0  0  0
    6.0343   -1.5438   -1.6860 H   0  0  0  0  0  0  0  0  0  0  0  0
    5.4407   -2.9578   -0.7594 H   0  0  0  0  0  0  0  0  0  0  0  0
    1.2038   -1.6685   -2.1178 H   0  0  0  0  0  0  0  0  0  0  0  0
    0.7667   -0.8464   -0.5965 H   0  0  0  0  0  0  0  0  0  0  0  0
   -1.1958   -2.0085   -2.0239 H   0  0  0  0  0  0  0  0  0  0  0  0
   -0.9489   -2.5394    0.7464 H   0  0  0  0  0  0  0  0  0  0  0  0
   -0.0775   -4.1260   -2.4105 H   0  0  0  0  0  0  0  0  0  0  0  0
   -1.1791   -4.5479   -1.0812 H   0  0  0  0  0  0  0  0  0  0  0  0
    1.6319   -4.8715   -0.9519 H   0  0  0  0  0  0  0  0  0  0  0  0
   -0.0436   -4.3778    2.5905 H   0  0  0  0  0  0  0  0  0  0  0  0
  1  2  1  0
  1 20  1  0
  1 21  1  0
  1 22  1  0
  2  3  2  0
  2  8  1  0
  3  4  1  0
  4  5  1  0
  4  6  1  0
  5 23  1  0
  5 24  1  0
  5 25  1  0
  6  7  1  0
  6  8  2  0
  7 26  1  0
  7 27  1  0
  7 28  1  0
  8  9  1  0
  9 10  2  0
  9 11  1  0
 11 12  1  0
 11 16  1  0
 12 13  1  0
 12 29  1  0
 12 30  1  0
 13 14  1  0
 13 15  1  0
 13 31  1  6
 14 32  1  0
 15 16  1  0
 15 33  1  0
 15 34  1  0
 16 17  1  0
 16 35  1  6
 17 18  2  0
 17 19  1  0
 19 36  1  0
M  END

