
     RDKit          3D

 50 50  0  0  0  0  0  0  0  0999 V2000
   10.6653    4.9139   10.3240 C   0  0  0  0  0  0  0  0  0  0  0  0
   10.5602    3.6113   10.9625 N   0  0  0  0  0  0  0  0  0  0  0  0
   11.7390    3.2982   11.7536 C   0  0  0  0  0  0  0  0  0  0  0  0
    9.3161    3.4265   11.7023 C   0  0  0  0  0  0  0  0  0  0  0  0
    8.1008    3.2739   10.7835 C   0  0  0  0  0  0  0  0  0  0  0  0
    8.4101    2.3009    9.7530 N   0  0  0  0  0  0  0  0  0  0  0  0
    7.5096    1.6818    8.9659 C   0  0  0  0  0  0  0  0  0  0  0  0
    5.8648    1.8485    9.1463 S   0  0  0  0  0  0  0  0  0  0  0  0
    8.4016    0.7598    7.6997 S   0  0  0  0  0  0  0  0  0  0  0  0
    7.2695   -0.5874    6.9866 C   0  0  1  0  0  0  0  0  0  0  0  0
    6.7171   -1.4596    8.1191 C   0  0  0  0  0  0  0  0  0  0  0  0
    6.1525    0.0322    6.1387 C   0  0  0  0  0  0  0  0  0  0  0  0
    8.2822   -1.4103    6.1389 C   0  0  2  0  0  0  0  0  0  0  0  0
    9.0741   -1.7766    6.8149 H   0  0  0  0  0  0  0  0  0  0  0  0
    8.9517   -0.5723    5.1424 N   0  0  0  0  0  0  0  0  0  0  0  0
   10.1976   -0.8371    4.6722 C   0  0  0  0  0  0  0  0  0  0  0  0
   10.7557   -1.9162    4.9091 O   0  0  0  0  0  0  0  0  0  0  0  0
   10.8602    0.2195    3.8502 C   0  0  0  0  0  0  0  0  0  0  0  0
   10.5192    1.5805    3.9379 C   0  0  0  0  0  0  0  0  0  0  0  0
   11.1795    2.5289    3.1570 C   0  0  0  0  0  0  0  0  0  0  0  0
   12.1861    2.1032    2.2910 C   0  0  0  0  0  0  0  0  0  0  0  0
   12.8199    3.0080    1.5391 F   0  0  0  0  0  0  0  0  0  0  0  0
   12.5563    0.7614    2.1947 C   0  0  0  0  0  0  0  0  0  0  0  0
   11.8933   -0.1755    2.9834 C   0  0  0  0  0  0  0  0  0  0  0  0
    7.6885   -2.6867    5.4643 C   0  0  0  0  0  0  0  0  0  0  0  0
    6.5180   -2.9693    5.4414 O   0  0  0  0  0  0  0  0  0  0  0  0
    8.6146   -3.4622    4.9095 O   0  0  0  0  0  0  0  0  0  0  0  0
   11.5815    4.9593    9.7151 H   0  0  0  0  0  0  0  0  0  0  0  0
   10.7006    5.7520   11.0561 H   0  0  0  0  0  0  0  0  0  0  0  0
    9.8125    5.0907    9.6516 H   0  0  0  0  0  0  0  0  0  0  0  0
   12.6398    3.3527   11.1223 H   0  0  0  0  0  0  0  0  0  0  0  0
   11.6683    2.2749   12.1538 H   0  0  0  0  0  0  0  0  0  0  0  0
   11.8866    3.9913   12.6122 H   0  0  0  0  0  0  0  0  0  0  0  0
    9.1193    4.2534   12.4206 H   0  0  0  0  0  0  0  0  0  0  0  0
    9.4183    2.5054   12.2985 H   0  0  0  0  0  0  0  0  0  0  0  0
    7.8062    4.2369   10.3262 H   0  0  0  0  0  0  0  0  0  0  0  0
    7.2270    2.9331   11.3592 H   0  0  0  0  0  0  0  0  0  0  0  0
    9.4111    2.1732    9.5919 H   0  0  0  0  0  0  0  0  0  0  0  0
    6.1021   -0.8551    8.7983 H   0  0  0  0  0  0  0  0  0  0  0  0
    7.5328   -1.9206    8.6976 H   0  0  0  0  0  0  0  0  0  0  0  0
    6.0911   -2.2549    7.6917 H   0  0  0  0  0  0  0  0  0  0  0  0
    5.5021    0.6469    6.7743 H   0  0  0  0  0  0  0  0  0  0  0  0
    5.5642   -0.7725    5.6757 H   0  0  0  0  0  0  0  0  0  0  0  0
    6.5429    0.6881    5.3430 H   0  0  0  0  0  0  0  0  0  0  0  0
    8.4537    0.2409    4.8016 H   0  0  0  0  0  0  0  0  0  0  0  0
    9.7587    1.9178    4.6464 H   0  0  0  0  0  0  0  0  0  0  0  0
   10.9361    3.5912    3.2162 H   0  0  0  0  0  0  0  0  0  0  0  0
   13.3550    0.4740    1.5085 H   0  0  0  0  0  0  0  0  0  0  0  0
   12.1641   -1.2319    2.9416 H   0  0  0  0  0  0  0  0  0  0  0  0
    9.5197   -3.0530    4.9791 H   0  0  0  0  0  0  0  0  0  0  0  0
  1  2  1  0
  1 28  1  0
  1 29  1  0
  1 30  1  0
  2  3  1  0
  2  4  1  0
  3 31  1  0
  3 32  1  0
  3 33  1  0
  4  5  1  0
  4 34  1  0
  4 35  1  0
  5  6  1  0
  5 36  1  0
  5 37  1  0
  6  7  1  0
  6 38  1  0
  7  8  2  0
  7  9  1  0
 10  9  1  1
 10 11  1  0
 10 12  1  0
 10 13  1  0
 11 39  1  0
 11 40  1  0
 11 41  1  0
 12 42  1  0
 12 43  1  0
 12 44  1  0
 13 14  1  1
 13 15  1  0
 13 25  1  0
 15 16  1  0
 15 45  1  0
 16 17  2  0
 16 18  1  0
 18 19  2  0
 18 24  1  0
 19 20  1  0
 19 46  1  0
 20 21  2  0
 20 47  1  0
 21 22  1  0
 21 23  1  0
 23 24  2  0
 23 48  1  0
 24 49  1  0
 25 26  2  0
 25 27  1  0
 27 50  1  0
M  END

