
     RDKit          3D

108117  0  0  0  0  0  0  0  0999 V2000
   -8.7025    0.9421    1.4034 C   0  0  0  0  0  0  0  0  0  0  0  0
   -8.1030    1.8761    0.3266 C   0  0  2  0  0  0  0  0  0  0  0  0
   -8.5093    3.3217    0.6659 C   0  0  0  0  0  0  0  0  0  0  0  0
   -8.7023    1.5190   -1.0535 C   0  0  0  0  0  0  0  0  0  0  0  0
   -6.5723    1.6947    0.2817 C   0  0  0  0  0  0  0  0  0  0  0  0
   -5.6709    2.7433    0.5438 C   0  0  0  0  0  0  0  0  0  0  0  0
   -4.2801    2.5870    0.4921 C   0  0  0  0  0  0  0  0  0  0  0  0
   -3.7489    1.3381    0.1557 C   0  0  0  0  0  0  0  0  0  0  0  0
   -4.6415    0.2522   -0.0688 C   0  0  0  0  0  0  0  0  0  0  0  0
   -6.0235    0.4368   -0.0149 C   0  0  0  0  0  0  0  0  0  0  0  0
   -3.8280   -0.9323   -0.2797 C   0  0  0  0  0  0  0  0  0  0  0  0
   -4.1054   -2.2736   -0.5271 C   0  0  0  0  0  0  0  0  0  0  0  0
   -3.0554   -3.2094   -0.6595 C   0  0  0  0  0  0  0  0  0  0  0  0
   -3.3970   -4.6847   -0.9583 C   0  0  1  0  0  0  0  0  0  0  0  0
   -4.1741   -4.7736   -2.2925 C   0  0  0  0  0  0  0  0  0  0  0  0
   -2.1397   -5.5645   -1.0802 C   0  0  0  0  0  0  0  0  0  0  0  0
   -4.2715   -5.2533    0.1836 C   0  0  0  0  0  0  0  0  0  0  0  0
   -1.7365   -2.7518   -0.5045 C   0  0  0  0  0  0  0  0  0  0  0  0
   -1.3991   -1.4017   -0.2397 C   0  0  0  0  0  0  0  0  0  0  0  0
   -2.4829   -0.5174   -0.1692 C   0  0  0  0  0  0  0  0  0  0  0  0
   -2.4163    0.8605    0.0423 N   0  0  0  0  0  0  0  0  0  0  0  0
   -1.1925    1.5485    0.0296 C   0  0  0  0  0  0  0  0  0  0  0  0
   -1.1545    2.9501    0.0013 C   0  0  0  0  0  0  0  0  0  0  0  0
    0.0679    3.6308    0.0491 C   0  0  0  0  0  0  0  0  0  0  0  0
    0.0950    5.1189    0.0659 C   0  0  0  0  0  0  0  0  0  0  0  0
    1.0707    5.8365   -0.6525 C   0  0  0  0  0  0  0  0  0  0  0  0
    1.0893    7.2329   -0.6350 C   0  0  0  0  0  0  0  0  0  0  0  0
    0.1404    7.9505    0.0978 C   0  0  0  0  0  0  0  0  0  0  0  0
   -0.8221    7.2338    0.8051 C   0  0  0  0  0  0  0  0  0  0  0  0
   -1.7375    7.9030    1.5226 F   0  0  0  0  0  0  0  0  0  0  0  0
   -0.8608    5.8430    0.8012 C   0  0  0  0  0  0  0  0  0  0  0  0
    1.2659    2.9064    0.0805 C   0  0  0  0  0  0  0  0  0  0  0  0
    1.2546    1.5057    0.0171 C   0  0  0  0  0  0  0  0  0  0  0  0
    0.0179    0.7816    0.0138 C   0  0  0  0  0  0  0  0  0  0  0  0
   -0.0095   -0.7663   -0.0060 B   0  0  0  0  0  0  0  0  0  0  0  0
    1.3567   -1.4564    0.2106 C   0  0  0  0  0  0  0  0  0  0  0  0
    1.6463   -2.8238    0.4393 C   0  0  0  0  0  0  0  0  0  0  0  0
    2.9488   -3.3315    0.5809 C   0  0  0  0  0  0  0  0  0  0  0  0
    3.2378   -4.8253    0.8406 C   0  0  1  0  0  0  0  0  0  0  0  0
    4.0074   -4.9769    2.1736 C   0  0  0  0  0  0  0  0  0  0  0  0
    1.9502   -5.6638    0.9364 C   0  0  0  0  0  0  0  0  0  0  0  0
    4.0951   -5.3936   -0.3143 C   0  0  0  0  0  0  0  0  0  0  0  0
    4.0309   -2.4303    0.4724 C   0  0  0  0  0  0  0  0  0  0  0  0
    3.8009   -1.0736    0.2607 C   0  0  0  0  0  0  0  0  0  0  0  0
    4.6546    0.0863    0.0798 C   0  0  0  0  0  0  0  0  0  0  0  0
    6.0470    0.2189    0.0300 C   0  0  0  0  0  0  0  0  0  0  0  0
    6.6374    1.4604   -0.2343 C   0  0  0  0  0  0  0  0  0  0  0  0
    8.1637    1.6677   -0.2938 C   0  0  1  0  0  0  0  0  0  0  0  0
    8.5632    2.1799   -1.6972 C   0  0  0  0  0  0  0  0  0  0  0  0
    8.5825    2.7079    0.7710 C   0  0  0  0  0  0  0  0  0  0  0  0
    8.9360    0.3644   -0.0214 C   0  0  0  0  0  0  0  0  0  0  0  0
    5.7704    2.5499   -0.4675 C   0  0  0  0  0  0  0  0  0  0  0  0
    4.3788    2.4470   -0.4185 C   0  0  0  0  0  0  0  0  0  0  0  0
    3.8025    1.2062   -0.1141 C   0  0  0  0  0  0  0  0  0  0  0  0
    2.4536    0.7749   -0.0130 N   0  0  0  0  0  0  0  0  0  0  0  0
    2.4710   -0.6093    0.1626 C   0  0  0  0  0  0  0  0  0  0  0  0
   -8.4878   -0.1172    1.1950 H   0  0  0  0  0  0  0  0  0  0  0  0
   -9.7983    1.0568    1.4471 H   0  0  0  0  0  0  0  0  0  0  0  0
   -8.2954    1.1759    2.3999 H   0  0  0  0  0  0  0  0  0  0  0  0
   -8.1323    4.0404   -0.0785 H   0  0  0  0  0  0  0  0  0  0  0  0
   -8.1426    3.6308    1.6572 H   0  0  0  0  0  0  0  0  0  0  0  0
   -9.6074    3.4064    0.6800 H   0  0  0  0  0  0  0  0  0  0  0  0
   -8.4842    0.4787   -1.3395 H   0  0  0  0  0  0  0  0  0  0  0  0
   -9.7984    1.6382   -1.0412 H   0  0  0  0  0  0  0  0  0  0  0  0
   -8.2971    2.1739   -1.8413 H   0  0  0  0  0  0  0  0  0  0  0  0
   -6.0482    3.7308    0.8086 H   0  0  0  0  0  0  0  0  0  0  0  0
   -3.6601    3.4407    0.7488 H   0  0  0  0  0  0  0  0  0  0  0  0
   -6.6744   -0.4215   -0.1969 H   0  0  0  0  0  0  0  0  0  0  0  0
   -5.1449   -2.5960   -0.6223 H   0  0  0  0  0  0  0  0  0  0  0  0
   -4.4304   -5.8213   -2.5215 H   0  0  0  0  0  0  0  0  0  0  0  0
   -5.1142   -4.2018   -2.2611 H   0  0  0  0  0  0  0  0  0  0  0  0
   -3.5716   -4.3801   -3.1266 H   0  0  0  0  0  0  0  0  0  0  0  0
   -2.4327   -6.6039   -1.2969 H   0  0  0  0  0  0  0  0  0  0  0  0
   -1.5524   -5.5755   -0.1488 H   0  0  0  0  0  0  0  0  0  0  0  0
   -1.4810   -5.2300   -1.8968 H   0  0  0  0  0  0  0  0  0  0  0  0
   -3.7394   -5.2091    1.1472 H   0  0  0  0  0  0  0  0  0  0  0  0
   -4.5300   -6.3065   -0.0153 H   0  0  0  0  0  0  0  0  0  0  0  0
   -5.2143   -4.6966    0.2972 H   0  0  0  0  0  0  0  0  0  0  0  0
   -0.9199   -3.4639   -0.6046 H   0  0  0  0  0  0  0  0  0  0  0  0
   -2.0646    3.5270   -0.1092 H   0  0  0  0  0  0  0  0  0  0  0  0
    1.8021    5.2945   -1.2550 H   0  0  0  0  0  0  0  0  0  0  0  0
    1.8482    7.7725   -1.2069 H   0  0  0  0  0  0  0  0  0  0  0  0
    0.1334    9.0415    0.1297 H   0  0  0  0  0  0  0  0  0  0  0  0
   -1.6210    5.3374    1.3988 H   0  0  0  0  0  0  0  0  0  0  0  0
    2.1952    3.4486    0.2054 H   0  0  0  0  0  0  0  0  0  0  0  0
    0.8053   -3.5093    0.5211 H   0  0  0  0  0  0  0  0  0  0  0  0
    3.4167   -4.5849    3.0167 H   0  0  0  0  0  0  0  0  0  0  0  0
    4.2262   -6.0387    2.3749 H   0  0  0  0  0  0  0  0  0  0  0  0
    4.9670   -4.4378    2.1591 H   0  0  0  0  0  0  0  0  0  0  0  0
    1.3654   -5.6291    0.0041 H   0  0  0  0  0  0  0  0  0  0  0  0
    2.2064   -6.7182    1.1254 H   0  0  0  0  0  0  0  0  0  0  0  0
    1.3014   -5.3288    1.7607 H   0  0  0  0  0  0  0  0  0  0  0  0
    4.3156   -6.4604   -0.1433 H   0  0  0  0  0  0  0  0  0  0  0  0
    5.0575   -4.8680   -0.4108 H   0  0  0  0  0  0  0  0  0  0  0  0
    3.5680   -5.3047   -1.2775 H   0  0  0  0  0  0  0  0  0  0  0  0
    5.0585   -2.7914    0.5580 H   0  0  0  0  0  0  0  0  0  0  0  0
    6.6592   -0.6689    0.1895 H   0  0  0  0  0  0  0  0  0  0  0  0
    9.6533    2.3353   -1.7550 H   0  0  0  0  0  0  0  0  0  0  0  0
    8.0785    3.1379   -1.9397 H   0  0  0  0  0  0  0  0  0  0  0  0
    8.2805    1.4552   -2.4772 H   0  0  0  0  0  0  0  0  0  0  0  0
    8.0945    3.6811    0.6088 H   0  0  0  0  0  0  0  0  0  0  0  0
    8.3162    2.3653    1.7836 H   0  0  0  0  0  0  0  0  0  0  0  0
    9.6723    2.8727    0.7422 H   0  0  0  0  0  0  0  0  0  0  0  0
    8.7065   -0.4130   -0.7669 H   0  0  0  0  0  0  0  0  0  0  0  0
    8.7155   -0.0427    0.9778 H   0  0  0  0  0  0  0  0  0  0  0  0
   10.0196    0.5558   -0.0679 H   0  0  0  0  0  0  0  0  0  0  0  0
    6.1912    3.5289   -0.7071 H   0  0  0  0  0  0  0  0  0  0  0  0
    3.7890    3.3286   -0.6510 H   0  0  0  0  0  0  0  0  0  0  0  0
  2  1  1  1
  1 57  1  0
  1 58  1  0
  1 59  1  0
  2  3  1  0
  2  4  1  0
  2  5  1  0
  3 60  1  0
  3 61  1  0
  3 62  1  0
  4 63  1  0
  4 64  1  0
  4 65  1  0
  5  6  2  0
  5 10  1  0
  6  7  1  0
  6 66  1  0
  7  8  2  0
  7 67  1  0
  8  9  1  0
  8 21  1  0
  9 10  2  0
  9 11  1  0
 10 68  1  0
 11 12  2  0
 11 20  1  0
 12 13  1  0
 12 69  1  0
 13 14  1  0
 13 18  2  0
 14 15  1  6
 14 16  1  0
 14 17  1  0
 15 70  1  0
 15 71  1  0
 15 72  1  0
 16 73  1  0
 16 74  1  0
 16 75  1  0
 17 76  1  0
 17 77  1  0
 17 78  1  0
 18 19  1  0
 18 79  1  0
 19 20  2  0
 19 35  1  0
 20 21  1  0
 21 22  1  0
 22 23  2  0
 22 34  1  0
 23 24  1  0
 23 80  1  0
 24 25  1  0
 24 32  2  0
 25 26  2  0
 25 31  1  0
 26 27  1  0
 26 81  1  0
 27 28  2  0
 27 82  1  0
 28 29  1  0
 28 83  1  0
 29 30  1  0
 29 31  2  0
 31 84  1  0
 32 33  1  0
 32 85  1  0
 33 34  2  0
 33 55  1  0
 34 35  1  0
 35 36  1  0
 36 37  1  0
 36 56  2  0
 37 38  2  0
 37 86  1  0
 38 39  1  0
 38 43  1  0
 39 40  1  1
 39 41  1  0
 39 42  1  0
 40 87  1  0
 40 88  1  0
 40 89  1  0
 41 90  1  0
 41 91  1  0
 41 92  1  0
 42 93  1  0
 42 94  1  0
 42 95  1  0
 43 44  2  0
 43 96  1  0
 44 45  1  0
 44 56  1  0
 45 46  1  0
 45 54  2  0
 46 47  2  0
 46 97  1  0
 47 48  1  0
 47 52  1  0
 48 49  1  6
 48 50  1  0
 48 51  1  0
 49 98  1  0
 49 99  1  0
 49100  1  0
 50101  1  0
 50102  1  0
 50103  1  0
 51104  1  0
 51105  1  0
 51106  1  0
 52 53  2  0
 52107  1  0
 53 54  1  0
 53108  1  0
 54 55  1  0
 55 56  1  0
M  END

