
     RDKit          3D

 37 38  0  0  0  0  0  0  0  0999 V2000
    1.1685    1.1423    0.3994 C   0  0  0  0  0  0  0  0  0  0  0  0
    2.5014    0.4935    0.0261 C   0  0  0  0  0  0  0  0  0  0  0  0
    3.2164    1.2204   -1.1132 C   0  0  0  0  0  0  0  0  0  0  0  0
    4.5501    0.5668   -1.4834 C   0  0  0  0  0  0  0  0  0  0  0  0
    4.9502   -0.4237   -0.8901 O   0  0  0  0  0  0  0  0  0  0  0  0
    5.2755    1.1346   -2.5095 N   0  0  0  0  0  0  0  0  0  0  0  0
    6.5488    0.5386   -2.9049 C   0  0  0  0  0  0  0  0  0  0  0  0
    7.6881    1.5573   -2.7950 C   0  0  0  0  0  0  0  0  0  0  0  0
    7.3808    2.8483   -3.5611 C   0  0  1  0  0  0  0  0  0  0  0  0
    6.0018    3.3951   -3.1701 C   0  0  0  0  0  0  0  0  0  0  0  0
    4.9104    2.3204   -3.2728 C   0  0  0  0  0  0  0  0  0  0  0  0
    8.5041    3.9027   -3.5057 C   0  0  0  0  0  0  0  0  0  0  0  0
    8.8471    4.0335   -4.9610 C   0  0  0  0  0  0  0  0  0  0  0  0
    9.8814    4.9776   -5.4903 C   0  0  0  0  0  0  0  0  0  0  0  0
   10.0596    4.9381   -6.8359 N   0  0  0  0  0  0  0  0  0  0  0  0
   10.4938    5.7109   -4.7309 O   0  0  0  0  0  0  0  0  0  0  0  0
    8.1786    3.2512   -5.7266 N   0  0  0  0  0  0  0  0  0  0  0  0
    7.3077    2.4940   -5.0018 O   0  0  0  0  0  0  0  0  0  0  0  0
    0.6763    0.5979    1.2207 H   0  0  0  0  0  0  0  0  0  0  0  0
    0.4694    1.1553   -0.4542 H   0  0  0  0  0  0  0  0  0  0  0  0
    1.3027    2.1868    0.7291 H   0  0  0  0  0  0  0  0  0  0  0  0
    2.3481   -0.5585   -0.2631 H   0  0  0  0  0  0  0  0  0  0  0  0
    3.1693    0.4580    0.9016 H   0  0  0  0  0  0  0  0  0  0  0  0
    3.3913    2.2757   -0.8353 H   0  0  0  0  0  0  0  0  0  0  0  0
    2.5680    1.2522   -2.0074 H   0  0  0  0  0  0  0  0  0  0  0  0
    6.4773    0.1832   -3.9484 H   0  0  0  0  0  0  0  0  0  0  0  0
    6.7245   -0.3268   -2.2554 H   0  0  0  0  0  0  0  0  0  0  0  0
    8.6235    1.1214   -3.1818 H   0  0  0  0  0  0  0  0  0  0  0  0
    7.8548    1.8142   -1.7349 H   0  0  0  0  0  0  0  0  0  0  0  0
    5.7520    4.2499   -3.8196 H   0  0  0  0  0  0  0  0  0  0  0  0
    6.0579    3.7681   -2.1330 H   0  0  0  0  0  0  0  0  0  0  0  0
    4.7795    2.0468   -4.3357 H   0  0  0  0  0  0  0  0  0  0  0  0
    3.9544    2.7234   -2.9217 H   0  0  0  0  0  0  0  0  0  0  0  0
    9.3793    3.5756   -2.9211 H   0  0  0  0  0  0  0  0  0  0  0  0
    8.1804    4.8658   -3.0807 H   0  0  0  0  0  0  0  0  0  0  0  0
    9.5202    4.3010   -7.4092 H   0  0  0  0  0  0  0  0  0  0  0  0
   10.7478    5.5512   -7.2539 H   0  0  0  0  0  0  0  0  0  0  0  0
  1  2  1  0
  1 19  1  0
  1 20  1  0
  1 21  1  0
  2  3  1  0
  2 22  1  0
  2 23  1  0
  3  4  1  0
  3 24  1  0
  3 25  1  0
  4  5  2  0
  4  6  1  0
  6  7  1  0
  6 11  1  0
  7  8  1  0
  7 26  1  0
  7 27  1  0
  8  9  1  0
  8 28  1  0
  8 29  1  0
  9 10  1  0
  9 12  1  0
  9 18  1  6
 10 11  1  0
 10 30  1  0
 10 31  1  0
 11 32  1  0
 11 33  1  0
 12 13  1  0
 12 34  1  0
 12 35  1  0
 13 14  1  0
 13 17  2  0
 14 15  1  0
 14 16  2  0
 15 36  1  0
 15 37  1  0
 17 18  1  0
M  END

