
     RDKit          3D

 45 46  0  0  0  0  0  0  0  0999 V2000
    6.7251    0.5920    2.2242 C   0  0  0  0  0  0  0  0  0  0  0  0
    5.7389   -0.1690    1.3553 C   0  0  0  0  0  0  0  0  0  0  0  0
    4.9064    0.4235    0.6943 O   0  0  0  0  0  0  0  0  0  0  0  0
    5.8113   -1.6665    1.3274 C   0  0  0  0  0  0  0  0  0  0  0  0
    6.7442   -2.4134    2.0648 C   0  0  0  0  0  0  0  0  0  0  0  0
    6.7767   -3.8068    2.0096 C   0  0  0  0  0  0  0  0  0  0  0  0
    5.8548   -4.4891    1.1951 C   0  0  0  0  0  0  0  0  0  0  0  0
    5.8180   -5.8891    1.0794 N   0  0  0  0  0  0  0  0  0  0  0  0
    6.6174   -6.8383    1.6767 C   0  0  0  0  0  0  0  0  0  0  0  0
    7.5082   -6.5854    2.4682 O   0  0  0  0  0  0  0  0  0  0  0  0
    6.3465   -8.2921    1.2229 C   0  0  1  0  0  0  0  0  0  0  0  0
    5.2685   -8.4107    1.0117 H   0  0  0  0  0  0  0  0  0  0  0  0
    7.1309   -8.5632   -0.0747 C   0  0  0  0  0  0  0  0  0  0  0  0
    6.7144   -9.2560    2.2397 N   0  0  0  0  0  0  0  0  0  0  0  0
    5.7126   -9.6112    3.2481 C   0  0  2  0  0  0  0  0  0  0  0  0
    4.8030   -9.8855    2.6880 H   0  0  0  0  0  0  0  0  0  0  0  0
    5.3319   -8.4908    4.2295 C   0  0  0  0  0  0  0  0  0  0  0  0
    6.1900  -10.8905    3.9292 C   0  0  0  0  0  0  0  0  0  0  0  0
    6.7920  -10.8706    5.1938 C   0  0  0  0  0  0  0  0  0  0  0  0
    7.2756  -12.0312    5.7908 C   0  0  0  0  0  0  0  0  0  0  0  0
    7.8421  -11.9597    6.9967 F   0  0  0  0  0  0  0  0  0  0  0  0
    7.1696  -13.2628    5.1395 C   0  0  0  0  0  0  0  0  0  0  0  0
    7.7721  -14.7046    5.8987 Cl  0  0  0  0  0  0  0  0  0  0  0  0
    6.5701  -13.3128    3.8789 C   0  0  0  0  0  0  0  0  0  0  0  0
    6.0941  -12.1415    3.2869 C   0  0  0  0  0  0  0  0  0  0  0  0
    5.3469  -12.2859    1.7080 Cl  0  0  0  0  0  0  0  0  0  0  0  0
    4.9137   -3.7474    0.4512 C   0  0  0  0  0  0  0  0  0  0  0  0
    4.8947   -2.3620    0.5181 C   0  0  0  0  0  0  0  0  0  0  0  0
    6.5274    1.6665    2.1222 H   0  0  0  0  0  0  0  0  0  0  0  0
    7.7638    0.3810    1.9224 H   0  0  0  0  0  0  0  0  0  0  0  0
    6.6273    0.3010    3.2827 H   0  0  0  0  0  0  0  0  0  0  0  0
    7.4713   -1.9087    2.7042 H   0  0  0  0  0  0  0  0  0  0  0  0
    7.5022   -4.3757    2.5857 H   0  0  0  0  0  0  0  0  0  0  0  0
    5.1043   -6.2447    0.4528 H   0  0  0  0  0  0  0  0  0  0  0  0
    6.8464   -7.8709   -0.8834 H   0  0  0  0  0  0  0  0  0  0  0  0
    6.9440   -9.5967   -0.3986 H   0  0  0  0  0  0  0  0  0  0  0  0
    8.2108   -8.4483    0.1080 H   0  0  0  0  0  0  0  0  0  0  0  0
    7.5858   -8.9615    2.6828 H   0  0  0  0  0  0  0  0  0  0  0  0
    4.6151   -8.8474    4.9862 H   0  0  0  0  0  0  0  0  0  0  0  0
    4.8548   -7.6585    3.6898 H   0  0  0  0  0  0  0  0  0  0  0  0
    6.2122   -8.0752    4.7432 H   0  0  0  0  0  0  0  0  0  0  0  0
    6.8997   -9.9387    5.7502 H   0  0  0  0  0  0  0  0  0  0  0  0
    6.4758  -14.2679    3.3626 H   0  0  0  0  0  0  0  0  0  0  0  0
    4.1933   -4.2714   -0.1847 H   0  0  0  0  0  0  0  0  0  0  0  0
    4.1697   -1.7807   -0.0550 H   0  0  0  0  0  0  0  0  0  0  0  0
  1  2  1  0
  1 29  1  0
  1 30  1  0
  1 31  1  0
  2  3  2  0
  2  4  1  0
  4  5  2  0
  4 28  1  0
  5  6  1  0
  5 32  1  0
  6  7  2  0
  6 33  1  0
  7  8  1  0
  7 27  1  0
  8  9  1  0
  8 34  1  0
  9 10  2  0
  9 11  1  0
 11 12  1  6
 11 13  1  0
 11 14  1  0
 13 35  1  0
 13 36  1  0
 13 37  1  0
 14 15  1  0
 14 38  1  0
 15 16  1  6
 15 17  1  0
 15 18  1  0
 17 39  1  0
 17 40  1  0
 17 41  1  0
 18 19  2  0
 18 25  1  0
 19 20  1  0
 19 42  1  0
 20 21  1  0
 20 22  2  0
 22 23  1  0
 22 24  1  0
 24 25  2  0
 24 43  1  0
 25 26  1  0
 27 28  2  0
 27 44  1  0
 28 45  1  0
M  END

