
     RDKit          3D

 33 34  0  0  0  0  0  0  0  0999 V2000
    3.4066    1.0415   -0.4469 C   0  0  0  0  0  0  0  0  0  0  0  0
    2.6427   -0.1380    0.1717 C   0  0  1  0  0  0  0  0  0  0  0  0
    1.1294   -0.0254   -0.0474 C   0  0  0  0  0  0  0  0  0  0  0  0
    3.3150   -1.4815   -0.3068 C   0  0  1  0  0  0  0  0  0  0  0  0
    4.4369   -1.8125    0.6892 C   0  0  0  0  0  0  0  0  0  0  0  0
    5.5986   -1.4948    0.5250 O   0  0  0  0  0  0  0  0  0  0  0  0
    3.9668   -2.4602    1.7966 N   0  0  0  0  0  0  0  0  0  0  0  0
    2.5561   -2.7366    1.9952 C   0  0  0  0  0  0  0  0  0  0  0  0
    1.8938   -3.2205    0.6993 C   0  0  0  0  0  0  0  0  0  0  0  0
    1.0253   -4.0663    0.7139 O   0  0  0  0  0  0  0  0  0  0  0  0
    2.4235   -2.6565   -0.4553 N   0  0  0  0  0  0  0  0  0  0  0  0
    2.4092   -3.4217   -1.6624 C   0  0  0  0  0  0  0  0  0  0  0  0
    2.6646   -4.8062   -1.5858 C   0  0  0  0  0  0  0  0  0  0  0  0
    2.6881   -5.6277   -2.7064 C   0  0  0  0  0  0  0  0  0  0  0  0
    2.4726   -5.0660   -3.9676 C   0  0  0  0  0  0  0  0  0  0  0  0
    2.5088   -6.1631   -5.5216 Br  0  0  0  0  0  0  0  0  0  0  0  0
    2.2339   -3.7011   -4.0933 C   0  0  0  0  0  0  0  0  0  0  0  0
    2.1950   -2.8910   -2.9508 C   0  0  0  0  0  0  0  0  0  0  0  0
    1.8724   -1.1945   -3.2352 Cl  0  0  0  0  0  0  0  0  0  0  0  0
    3.0654    1.9969   -0.0180 H   0  0  0  0  0  0  0  0  0  0  0  0
    3.2472    1.0811   -1.5365 H   0  0  0  0  0  0  0  0  0  0  0  0
    4.4885    0.9517   -0.2646 H   0  0  0  0  0  0  0  0  0  0  0  0
    2.8008   -0.0744    1.2632 H   0  0  0  0  0  0  0  0  0  0  0  0
    0.8613   -0.0289   -1.1114 H   0  0  0  0  0  0  0  0  0  0  0  0
    0.7725    0.9208    0.3904 H   0  0  0  0  0  0  0  0  0  0  0  0
    0.5693   -0.8407    0.4351 H   0  0  0  0  0  0  0  0  0  0  0  0
    3.7953   -1.3199   -1.2760 H   0  0  0  0  0  0  0  0  0  0  0  0
    4.6359   -2.6631    2.5324 H   0  0  0  0  0  0  0  0  0  0  0  0
    1.9996   -1.8659    2.3927 H   0  0  0  0  0  0  0  0  0  0  0  0
    2.4302   -3.5533    2.7172 H   0  0  0  0  0  0  0  0  0  0  0  0
    2.8413   -5.2527   -0.6078 H   0  0  0  0  0  0  0  0  0  0  0  0
    2.8861   -6.6950   -2.6003 H   0  0  0  0  0  0  0  0  0  0  0  0
    2.0671   -3.2480   -5.0700 H   0  0  0  0  0  0  0  0  0  0  0  0
  1  2  1  0
  1 20  1  0
  1 21  1  0
  1 22  1  0
  2  3  1  0
  2  4  1  0
  2 23  1  1
  3 24  1  0
  3 25  1  0
  3 26  1  0
  4  5  1  0
  4 11  1  0
  4 27  1  6
  5  6  2  0
  5  7  1  0
  7  8  1  0
  7 28  1  0
  8  9  1  0
  8 29  1  0
  8 30  1  0
  9 10  2  0
  9 11  1  0
 11 12  1  0
 12 13  2  0
 12 18  1  0
 13 14  1  0
 13 31  1  0
 14 15  2  0
 14 32  1  0
 15 16  1  0
 15 17  1  0
 17 18  2  0
 17 33  1  0
 18 19  1  0
M  END

