
     RDKit          3D

 56 58  0  0  0  0  0  0  0  0999 V2000
    5.6840    0.4923    0.5721 C   0  0  0  0  0  0  0  0  0  0  0  0
    4.8520   -0.6373    0.6943 O   0  0  0  0  0  0  0  0  0  0  0  0
    4.3125   -0.9440    1.9086 C   0  0  0  0  0  0  0  0  0  0  0  0
    4.5059   -0.1695    3.0562 C   0  0  0  0  0  0  0  0  0  0  0  0
    3.9583   -0.5618    4.2856 C   0  0  0  0  0  0  0  0  0  0  0  0
    3.2076   -1.7299    4.3647 C   0  0  0  0  0  0  0  0  0  0  0  0
    2.9922   -2.4983    3.2137 C   0  0  0  0  0  0  0  0  0  0  0  0
    3.5289   -2.1352    1.9685 C   0  0  0  0  0  0  0  0  0  0  0  0
    3.3701   -2.9289    0.8149 N   0  0  0  0  0  0  0  0  0  0  0  0
    2.6999   -2.3322   -0.3433 C   0  0  0  0  0  0  0  0  0  0  0  0
    3.0329   -3.0970   -1.6253 C   0  0  0  0  0  0  0  0  0  0  0  0
    2.7275   -4.5180   -1.4696 N   0  0  0  0  0  0  0  0  0  0  0  0
    1.8314   -5.2581   -2.1873 C   0  0  0  0  0  0  0  0  0  0  0  0
    1.4817   -6.3815   -1.8377 O   0  0  0  0  0  0  0  0  0  0  0  0
    1.3074   -4.7180   -3.5315 C   0  0  0  0  0  0  0  0  0  0  0  0
   -0.1507   -4.7027   -3.6040 N   0  0  0  0  0  0  0  0  0  0  0  0
   -0.8207   -5.6788   -4.4569 C   0  0  0  0  0  0  0  0  0  0  0  0
   -0.7807   -7.1230   -3.9460 C   0  0  1  0  0  0  0  0  0  0  0  0
   -1.5714   -7.4331   -2.6727 C   0  0  0  0  0  0  0  0  0  0  0  0
   -1.9027   -8.9164   -2.8799 C   0  0  0  0  0  0  0  0  0  0  0  0
   -2.1463   -8.9797   -4.3939 C   0  0  0  0  0  0  0  0  0  0  0  0
   -1.3645   -7.9359   -4.9691 O   0  0  0  0  0  0  0  0  0  0  0  0
   -0.7698   -3.6940   -2.9077 C   0  0  0  0  0  0  0  0  0  0  0  0
   -2.2833   -3.5719   -2.9813 C   0  0  0  0  0  0  0  0  0  0  0  0
   -0.1078   -2.8992   -2.2493 O   0  0  0  0  0  0  0  0  0  0  0  0
    3.3457   -5.1121   -0.2858 C   0  0  0  0  0  0  0  0  0  0  0  0
    3.0049   -4.3264    0.9816 C   0  0  0  0  0  0  0  0  0  0  0  0
    6.0187    0.5230   -0.4739 H   0  0  0  0  0  0  0  0  0  0  0  0
    6.5701    0.4229    1.2288 H   0  0  0  0  0  0  0  0  0  0  0  0
    5.1468    1.4305    0.8021 H   0  0  0  0  0  0  0  0  0  0  0  0
    5.1054    0.7396    3.0067 H   0  0  0  0  0  0  0  0  0  0  0  0
    4.1298    0.0527    5.1726 H   0  0  0  0  0  0  0  0  0  0  0  0
    2.7741   -2.0481    5.3159 H   0  0  0  0  0  0  0  0  0  0  0  0
    2.3819   -3.3991    3.2868 H   0  0  0  0  0  0  0  0  0  0  0  0
    3.0275   -1.2930   -0.4571 H   0  0  0  0  0  0  0  0  0  0  0  0
    1.5987   -2.3405   -0.2130 H   0  0  0  0  0  0  0  0  0  0  0  0
    4.1088   -2.9796   -1.8500 H   0  0  0  0  0  0  0  0  0  0  0  0
    2.4426   -2.6676   -2.4384 H   0  0  0  0  0  0  0  0  0  0  0  0
    1.6763   -5.4225   -4.2912 H   0  0  0  0  0  0  0  0  0  0  0  0
    1.6964   -3.7242   -3.7819 H   0  0  0  0  0  0  0  0  0  0  0  0
   -0.3552   -5.6652   -5.4583 H   0  0  0  0  0  0  0  0  0  0  0  0
   -1.8684   -5.3875   -4.6003 H   0  0  0  0  0  0  0  0  0  0  0  0
    0.2717   -7.4201   -3.7842 H   0  0  0  0  0  0  0  0  0  0  0  0
   -2.5006   -6.8373   -2.6385 H   0  0  0  0  0  0  0  0  0  0  0  0
   -0.9833   -7.2274   -1.7688 H   0  0  0  0  0  0  0  0  0  0  0  0
   -2.7663   -9.2632   -2.2924 H   0  0  0  0  0  0  0  0  0  0  0  0
   -1.0360   -9.5380   -2.6019 H   0  0  0  0  0  0  0  0  0  0  0  0
   -3.2143   -8.8165   -4.6374 H   0  0  0  0  0  0  0  0  0  0  0  0
   -1.8498   -9.9469   -4.8356 H   0  0  0  0  0  0  0  0  0  0  0  0
   -2.6279   -3.3816   -4.0100 H   0  0  0  0  0  0  0  0  0  0  0  0
   -2.5711   -2.7250   -2.3471 H   0  0  0  0  0  0  0  0  0  0  0  0
   -2.7880   -4.4803   -2.6206 H   0  0  0  0  0  0  0  0  0  0  0  0
    4.4422   -5.1083   -0.4229 H   0  0  0  0  0  0  0  0  0  0  0  0
    2.9953   -6.1477   -0.2062 H   0  0  0  0  0  0  0  0  0  0  0  0
    3.5718   -4.7519    1.8234 H   0  0  0  0  0  0  0  0  0  0  0  0
    1.9229   -4.4557    1.2047 H   0  0  0  0  0  0  0  0  0  0  0  0
  1  2  1  0
  1 28  1  0
  1 29  1  0
  1 30  1  0
  2  3  1  0
  3  4  2  0
  3  8  1  0
  4  5  1  0
  4 31  1  0
  5  6  2  0
  5 32  1  0
  6  7  1  0
  6 33  1  0
  7  8  2  0
  7 34  1  0
  8  9  1  0
  9 10  1  0
  9 27  1  0
 10 11  1  0
 10 35  1  0
 10 36  1  0
 11 12  1  0
 11 37  1  0
 11 38  1  0
 12 13  1  0
 12 26  1  0
 13 14  2  0
 13 15  1  0
 15 16  1  0
 15 39  1  0
 15 40  1  0
 16 17  1  0
 16 23  1  0
 17 18  1  0
 17 41  1  0
 17 42  1  0
 18 19  1  0
 18 22  1  0
 18 43  1  1
 19 20  1  0
 19 44  1  0
 19 45  1  0
 20 21  1  0
 20 46  1  0
 20 47  1  0
 21 22  1  0
 21 48  1  0
 21 49  1  0
 23 24  1  0
 23 25  2  0
 24 50  1  0
 24 51  1  0
 24 52  1  0
 26 27  1  0
 26 53  1  0
 26 54  1  0
 27 55  1  0
 27 56  1  0
M  END

