
     RDKit          3D

 70 79  0  0  0  0  0  0  0  0999 V2000
    5.5219   -2.8084    1.9095 C   0  0  0  0  0  0  0  0  0  0  0  0
    4.6749   -1.8538    2.4678 C   0  0  0  0  0  0  0  0  0  0  0  0
    4.0360   -0.9105    1.6525 C   0  0  0  0  0  0  0  0  0  0  0  0
    4.2333   -0.9071    0.2646 C   0  0  0  0  0  0  0  0  0  0  0  0
    5.0956   -1.8802   -0.2863 C   0  0  0  0  0  0  0  0  0  0  0  0
    5.7294   -2.8155    0.5242 C   0  0  0  0  0  0  0  0  0  0  0  0
    5.3404   -1.9454   -1.6365 O   0  0  0  0  0  0  0  0  0  0  0  0
    4.7591   -1.0199   -2.4688 C   0  0  0  0  0  0  0  0  0  0  0  0
    5.0588   -1.1016   -3.8242 C   0  0  0  0  0  0  0  0  0  0  0  0
    4.4974   -0.1921   -4.7296 C   0  0  0  0  0  0  0  0  0  0  0  0
    3.6360    0.7961   -4.2587 C   0  0  0  0  0  0  0  0  0  0  0  0
    3.3334    0.8799   -2.8932 C   0  0  0  0  0  0  0  0  0  0  0  0
    3.8875   -0.0241   -1.9762 C   0  0  0  0  0  0  0  0  0  0  0  0
    3.6094    0.0183   -0.5955 N   0  0  0  0  0  0  0  0  0  0  0  0
    2.7586    1.0366   -0.0633 C   0  0  0  0  0  0  0  0  0  0  0  0
    3.2998    2.2757    0.3323 C   0  0  0  0  0  0  0  0  0  0  0  0
    2.4661    3.2554    0.8453 C   0  0  0  0  0  0  0  0  0  0  0  0
    1.0798    3.0303    0.9782 C   0  0  0  0  0  0  0  0  0  0  0  0
    0.5204    1.7846    0.5837 C   0  0  0  0  0  0  0  0  0  0  0  0
    1.3936    0.8035    0.0634 C   0  0  0  0  0  0  0  0  0  0  0  0
   -0.9247    1.5520    0.7230 C   0  0  0  0  0  0  0  0  0  0  0  0
   -1.5302    0.3322    0.3474 C   0  0  0  0  0  0  0  0  0  0  0  0
   -2.8986    0.1259    0.4833 C   0  0  0  0  0  0  0  0  0  0  0  0
   -3.4739   -1.1226    0.0903 N   0  0  0  0  0  0  0  0  0  0  0  0
   -3.6302   -2.1596    1.0313 C   0  0  0  0  0  0  0  0  0  0  0  0
   -3.2072   -2.0500    2.3633 C   0  0  0  0  0  0  0  0  0  0  0  0
   -3.3797   -3.1104    3.2626 C   0  0  0  0  0  0  0  0  0  0  0  0
   -3.9779   -4.2972    2.8455 C   0  0  0  0  0  0  0  0  0  0  0  0
   -4.4057   -4.4202    1.5173 C   0  0  0  0  0  0  0  0  0  0  0  0
   -4.2347   -3.3688    0.6235 C   0  0  0  0  0  0  0  0  0  0  0  0
   -4.6723   -3.5576   -0.6649 O   0  0  0  0  0  0  0  0  0  0  0  0
   -4.5515   -2.5322   -1.5711 C   0  0  0  0  0  0  0  0  0  0  0  0
   -5.0374   -2.7533   -2.8551 C   0  0  0  0  0  0  0  0  0  0  0  0
   -4.9440   -1.7515   -3.8298 C   0  0  0  0  0  0  0  0  0  0  0  0
   -4.3606   -0.5305   -3.4997 C   0  0  0  0  0  0  0  0  0  0  0  0
   -3.8711   -0.3061   -2.2062 C   0  0  0  0  0  0  0  0  0  0  0  0
   -3.9561   -1.3004   -1.2217 C   0  0  0  0  0  0  0  0  0  0  0  0
   -3.7149    1.1476    1.0074 C   0  0  0  0  0  0  0  0  0  0  0  0
   -3.1470    2.3530    1.3847 C   0  0  0  0  0  0  0  0  0  0  0  0
   -1.7600    2.5738    1.2509 C   0  0  0  0  0  0  0  0  0  0  0  0
   -1.1790    3.8521    1.6543 C   0  0  0  0  0  0  0  0  0  0  0  0
   -1.9837    4.8103    2.1529 N   0  0  0  0  0  0  0  0  0  0  0  0
   -1.4302    5.9565    2.5096 C   0  0  0  0  0  0  0  0  0  0  0  0
   -0.0448    6.1790    2.3769 C   0  0  0  0  0  0  0  0  0  0  0  0
    0.7611    5.2513    1.8900 N   0  0  0  0  0  0  0  0  0  0  0  0
    0.2160    4.0762    1.5206 C   0  0  0  0  0  0  0  0  0  0  0  0
    6.0227   -3.5472    2.5388 H   0  0  0  0  0  0  0  0  0  0  0  0
    4.5004   -1.8318    3.5460 H   0  0  0  0  0  0  0  0  0  0  0  0
    3.3746   -0.1680    2.0997 H   0  0  0  0  0  0  0  0  0  0  0  0
    6.3851   -3.5457    0.0457 H   0  0  0  0  0  0  0  0  0  0  0  0
    5.7383   -1.8914   -4.1507 H   0  0  0  0  0  0  0  0  0  0  0  0
    4.7372   -0.2638   -5.7926 H   0  0  0  0  0  0  0  0  0  0  0  0
    3.1879    1.5145   -4.9490 H   0  0  0  0  0  0  0  0  0  0  0  0
    2.6573    1.6567   -2.5354 H   0  0  0  0  0  0  0  0  0  0  0  0
    4.3728    2.4491    0.2290 H   0  0  0  0  0  0  0  0  0  0  0  0
    2.8587    4.2233    1.1588 H   0  0  0  0  0  0  0  0  0  0  0  0
    1.0166   -0.1679   -0.2547 H   0  0  0  0  0  0  0  0  0  0  0  0
   -0.9358   -0.4841   -0.0615 H   0  0  0  0  0  0  0  0  0  0  0  0
   -2.7368   -1.1259    2.6999 H   0  0  0  0  0  0  0  0  0  0  0  0
   -3.0389   -2.9952    4.2941 H   0  0  0  0  0  0  0  0  0  0  0  0
   -4.1151   -5.1280    3.5408 H   0  0  0  0  0  0  0  0  0  0  0  0
   -4.8787   -5.3326    1.1487 H   0  0  0  0  0  0  0  0  0  0  0  0
   -5.4875   -3.7243   -3.0712 H   0  0  0  0  0  0  0  0  0  0  0  0
   -5.3271   -1.9337   -4.8361 H   0  0  0  0  0  0  0  0  0  0  0  0
   -4.2789    0.2634   -4.2456 H   0  0  0  0  0  0  0  0  0  0  0  0
   -3.4161    0.6532   -1.9586 H   0  0  0  0  0  0  0  0  0  0  0  0
   -4.7883    0.9761    1.1100 H   0  0  0  0  0  0  0  0  0  0  0  0
   -3.7555    3.1604    1.7933 H   0  0  0  0  0  0  0  0  0  0  0  0
   -2.0856    6.7360    2.9152 H   0  0  0  0  0  0  0  0  0  0  0  0
    0.3994    7.1351    2.6773 H   0  0  0  0  0  0  0  0  0  0  0  0
  1  2  2  0
  1  6  1  0
  1 47  1  0
  2  3  1  0
  2 48  1  0
  3  4  2  0
  3 49  1  0
  4  5  1  0
  4 14  1  0
  5  6  2  0
  5  7  1  0
  6 50  1  0
  7  8  1  0
  8  9  2  0
  8 13  1  0
  9 10  1  0
  9 51  1  0
 10 11  2  0
 10 52  1  0
 11 12  1  0
 11 53  1  0
 12 13  2  0
 12 54  1  0
 13 14  1  0
 14 15  1  0
 15 16  2  0
 15 20  1  0
 16 17  1  0
 16 55  1  0
 17 18  2  0
 17 56  1  0
 18 19  1  0
 18 46  1  0
 19 20  2  0
 19 21  1  0
 20 57  1  0
 21 22  2  0
 21 40  1  0
 22 23  1  0
 22 58  1  0
 23 24  1  0
 23 38  2  0
 24 25  1  0
 24 37  1  0
 25 26  2  0
 25 30  1  0
 26 27  1  0
 26 59  1  0
 27 28  2  0
 27 60  1  0
 28 29  1  0
 28 61  1  0
 29 30  2  0
 29 62  1  0
 30 31  1  0
 31 32  1  0
 32 33  2  0
 32 37  1  0
 33 34  1  0
 33 63  1  0
 34 35  2  0
 34 64  1  0
 35 36  1  0
 35 65  1  0
 36 37  2  0
 36 66  1  0
 38 39  1  0
 38 67  1  0
 39 40  2  0
 39 68  1  0
 40 41  1  0
 41 42  1  0
 41 46  2  0
 42 43  2  0
 43 44  1  0
 43 69  1  0
 44 45  2  0
 44 70  1  0
 45 46  1  0
M  END

