
     RDKit          3D

 52 54  0  0  0  0  0  0  0  0999 V2000
    3.7938   -1.3386    0.0518 C   0  0  0  0  0  0  0  0  0  0  0  0
    2.9387   -0.2247   -0.0557 O   0  0  0  0  0  0  0  0  0  0  0  0
    3.3900    0.9015   -0.6666 C   0  0  0  0  0  0  0  0  0  0  0  0
    4.6743    1.0579   -1.2047 C   0  0  0  0  0  0  0  0  0  0  0  0
    5.0299    2.2703   -1.8122 C   0  0  0  0  0  0  0  0  0  0  0  0
    4.1343    3.3397   -1.9103 C   0  0  0  0  0  0  0  0  0  0  0  0
    4.5379    4.6302   -2.6121 C   0  0  1  0  0  0  0  0  0  0  0  0
    3.6118    4.8449   -3.8338 C   0  0  0  0  0  0  0  0  0  0  0  0
    3.7718    6.1230   -4.6716 C   0  0  0  0  0  0  0  0  0  0  0  0
    3.3039    7.3996   -3.9574 C   0  0  0  0  0  0  0  0  0  0  0  0
    4.3101    7.9891   -2.9519 C   0  0  0  0  0  0  0  0  0  0  0  0
    5.2359    6.9644   -2.2870 C   0  0  0  0  0  0  0  0  0  0  0  0
    4.5507    5.8029   -1.7049 N   0  0  0  0  0  0  0  0  0  0  0  0
    4.8817    5.5690   -0.3170 C   0  0  0  0  0  0  0  0  0  0  0  0
    6.3231    5.0856   -0.0540 C   0  0  0  0  0  0  0  0  0  0  0  0
    7.1270    4.9583   -0.9660 O   0  0  0  0  0  0  0  0  0  0  0  0
    6.6648    4.8052    1.2526 N   0  0  0  0  0  0  0  0  0  0  0  0
    7.9824    4.2663    1.5513 C   0  0  0  0  0  0  0  0  0  0  0  0
    8.6621    5.1279    2.6068 C   0  0  0  0  0  0  0  0  0  0  0  0
    7.7690    5.3205    3.7409 N   0  0  0  0  0  0  0  0  0  0  0  0
    6.4062    5.2708    3.7099 C   0  0  0  0  0  0  0  0  0  0  0  0
    5.7110    5.5085    4.6805 O   0  0  0  0  0  0  0  0  0  0  0  0
    5.7549    4.8524    2.3857 C   0  0  0  0  0  0  0  0  0  0  0  0
    2.8480    3.1621   -1.3619 C   0  0  0  0  0  0  0  0  0  0  0  0
    2.4792    1.9713   -0.7470 C   0  0  0  0  0  0  0  0  0  0  0  0
    3.2246   -2.1232    0.5688 H   0  0  0  0  0  0  0  0  0  0  0  0
    4.7000   -1.1087    0.6418 H   0  0  0  0  0  0  0  0  0  0  0  0
    4.1052   -1.7174   -0.9388 H   0  0  0  0  0  0  0  0  0  0  0  0
    5.4062    0.2509   -1.1591 H   0  0  0  0  0  0  0  0  0  0  0  0
    6.0403    2.3855   -2.2130 H   0  0  0  0  0  0  0  0  0  0  0  0
    5.5648    4.4736   -2.9964 H   0  0  0  0  0  0  0  0  0  0  0  0
    2.5634    4.7991   -3.4925 H   0  0  0  0  0  0  0  0  0  0  0  0
    3.7568    3.9686   -4.4885 H   0  0  0  0  0  0  0  0  0  0  0  0
    3.1636    5.9890   -5.5826 H   0  0  0  0  0  0  0  0  0  0  0  0
    4.8130    6.2323   -5.0254 H   0  0  0  0  0  0  0  0  0  0  0  0
    2.3576    7.1691   -3.4389 H   0  0  0  0  0  0  0  0  0  0  0  0
    3.0549    8.1723   -4.7042 H   0  0  0  0  0  0  0  0  0  0  0  0
    3.7611    8.5513   -2.1769 H   0  0  0  0  0  0  0  0  0  0  0  0
    4.9597    8.7245   -3.4607 H   0  0  0  0  0  0  0  0  0  0  0  0
    5.8115    7.4778   -1.5008 H   0  0  0  0  0  0  0  0  0  0  0  0
    5.9968    6.6232   -3.0128 H   0  0  0  0  0  0  0  0  0  0  0  0
    4.1854    4.8394    0.1225 H   0  0  0  0  0  0  0  0  0  0  0  0
    4.7184    6.5071    0.2422 H   0  0  0  0  0  0  0  0  0  0  0  0
    8.5595    4.2545    0.6188 H   0  0  0  0  0  0  0  0  0  0  0  0
    7.8873    3.2265    1.9194 H   0  0  0  0  0  0  0  0  0  0  0  0
    8.9532    6.0980    2.1616 H   0  0  0  0  0  0  0  0  0  0  0  0
    9.5850    4.6345    2.9538 H   0  0  0  0  0  0  0  0  0  0  0  0
    8.1527    5.6440    4.6244 H   0  0  0  0  0  0  0  0  0  0  0  0
    4.9430    5.5700    2.2190 H   0  0  0  0  0  0  0  0  0  0  0  0
    5.2754    3.8705    2.5714 H   0  0  0  0  0  0  0  0  0  0  0  0
    2.1238    3.9795   -1.4107 H   0  0  0  0  0  0  0  0  0  0  0  0
    1.4829    1.8357   -0.3206 H   0  0  0  0  0  0  0  0  0  0  0  0
  1  2  1  0
  1 26  1  0
  1 27  1  0
  1 28  1  0
  2  3  1  0
  3  4  2  0
  3 25  1  0
  4  5  1  0
  4 29  1  0
  5  6  2  0
  5 30  1  0
  6  7  1  0
  6 24  1  0
  7  8  1  0
  7 13  1  0
  7 31  1  6
  8  9  1  0
  8 32  1  0
  8 33  1  0
  9 10  1  0
  9 34  1  0
  9 35  1  0
 10 11  1  0
 10 36  1  0
 10 37  1  0
 11 12  1  0
 11 38  1  0
 11 39  1  0
 12 13  1  0
 12 40  1  0
 12 41  1  0
 13 14  1  0
 14 15  1  0
 14 42  1  0
 14 43  1  0
 15 16  2  0
 15 17  1  0
 17 18  1  0
 17 23  1  0
 18 19  1  0
 18 44  1  0
 18 45  1  0
 19 20  1  0
 19 46  1  0
 19 47  1  0
 20 21  1  0
 20 48  1  0
 21 22  2  0
 21 23  1  0
 23 49  1  0
 23 50  1  0
 24 25  2  0
 24 51  1  0
 25 52  1  0
M  END

