
     RDKit          3D

 42 45  0  0  0  0  0  0  0  0999 V2000
    0.7044   -0.6765   -1.1865 C   0  0  0  0  0  0  0  0  0  0  0  0
    2.1331   -1.1634   -1.1885 C   0  0  0  0  0  0  0  0  0  0  0  0
    2.4612   -2.4737   -1.5611 C   0  0  0  0  0  0  0  0  0  0  0  0
    3.7887   -2.9139   -1.5621 C   0  0  0  0  0  0  0  0  0  0  0  0
    4.8274   -2.0584   -1.1792 C   0  0  0  0  0  0  0  0  0  0  0  0
    6.2512   -2.5553   -1.1287 C   0  0  0  0  0  0  0  0  0  0  0  0
    7.1234   -1.5455   -1.6149 O   0  0  0  0  0  0  0  0  0  0  0  0
    8.4616   -1.7568   -1.6246 C   0  0  0  0  0  0  0  0  0  0  0  0
    9.2518   -0.6922   -2.0926 C   0  0  0  0  0  0  0  0  0  0  0  0
   10.6330   -0.8265   -2.1520 C   0  0  0  0  0  0  0  0  0  0  0  0
   11.2504   -2.0123   -1.7283 C   0  0  0  0  0  0  0  0  0  0  0  0
   10.4785   -3.0848   -1.2429 C   0  0  0  0  0  0  0  0  0  0  0  0
    9.0825   -2.9451   -1.2088 C   0  0  0  0  0  0  0  0  0  0  0  0
   11.1542   -4.3405   -0.7325 C   0  0  0  0  0  0  0  0  0  0  0  0
   11.8218   -5.2245   -1.8082 C   0  0  0  0  0  0  0  0  0  0  0  0
   12.6586   -4.4370   -2.8431 C   0  0  0  0  0  0  0  0  0  0  0  0
   13.3575   -3.2412   -2.2849 C   0  0  0  0  0  0  0  0  0  0  0  0
   14.6483   -3.0232   -2.2079 N   0  0  0  0  0  0  0  0  0  0  0  0
   14.8342   -1.7766   -1.6622 N   0  0  0  0  0  0  0  0  0  0  0  0
   13.6542   -1.2691   -1.4239 C   0  0  0  0  0  0  0  0  0  0  0  0
   12.6650   -2.1506   -1.7957 N   0  0  0  0  0  0  0  0  0  0  0  0
    4.5071   -0.7439   -0.8056 C   0  0  0  0  0  0  0  0  0  0  0  0
    3.1838   -0.3067   -0.8145 C   0  0  0  0  0  0  0  0  0  0  0  0
    0.0117   -1.4505   -1.5483 H   0  0  0  0  0  0  0  0  0  0  0  0
    0.5826    0.2122   -1.8278 H   0  0  0  0  0  0  0  0  0  0  0  0
    0.3827   -0.3857   -0.1721 H   0  0  0  0  0  0  0  0  0  0  0  0
    1.6677   -3.1618   -1.8658 H   0  0  0  0  0  0  0  0  0  0  0  0
    4.0143   -3.9392   -1.8705 H   0  0  0  0  0  0  0  0  0  0  0  0
    6.3545   -3.4764   -1.7311 H   0  0  0  0  0  0  0  0  0  0  0  0
    6.5318   -2.8111   -0.0876 H   0  0  0  0  0  0  0  0  0  0  0  0
    8.7561    0.2237   -2.4188 H   0  0  0  0  0  0  0  0  0  0  0  0
   11.2449   -0.0104   -2.5421 H   0  0  0  0  0  0  0  0  0  0  0  0
    8.4901   -3.7798   -0.8337 H   0  0  0  0  0  0  0  0  0  0  0  0
   10.4254   -4.9445   -0.1706 H   0  0  0  0  0  0  0  0  0  0  0  0
   11.9283   -4.0372   -0.0065 H   0  0  0  0  0  0  0  0  0  0  0  0
   11.0543   -5.8034   -2.3477 H   0  0  0  0  0  0  0  0  0  0  0  0
   12.4632   -5.9569   -1.2914 H   0  0  0  0  0  0  0  0  0  0  0  0
   11.9954   -4.0959   -3.6572 H   0  0  0  0  0  0  0  0  0  0  0  0
   13.4212   -5.0827   -3.3000 H   0  0  0  0  0  0  0  0  0  0  0  0
   13.4494   -0.2981   -0.9753 H   0  0  0  0  0  0  0  0  0  0  0  0
    5.3073   -0.0581   -0.5188 H   0  0  0  0  0  0  0  0  0  0  0  0
    2.9584    0.7241   -0.5248 H   0  0  0  0  0  0  0  0  0  0  0  0
  1  2  1  0
  1 24  1  0
  1 25  1  0
  1 26  1  0
  2  3  2  0
  2 23  1  0
  3  4  1  0
  3 27  1  0
  4  5  2  0
  4 28  1  0
  5  6  1  0
  5 22  1  0
  6  7  1  0
  6 29  1  0
  6 30  1  0
  7  8  1  0
  8  9  2  0
  8 13  1  0
  9 10  1  0
  9 31  1  0
 10 11  2  0
 10 32  1  0
 11 12  1  0
 11 21  1  0
 12 13  2  0
 12 14  1  0
 13 33  1  0
 14 15  1  0
 14 34  1  0
 14 35  1  0
 15 16  1  0
 15 36  1  0
 15 37  1  0
 16 17  1  0
 16 38  1  0
 16 39  1  0
 17 18  2  0
 17 21  1  0
 18 19  1  0
 19 20  2  0
 20 21  1  0
 20 40  1  0
 22 23  2  0
 22 41  1  0
 23 42  1  0
M  END

