
     RDKit          3D

 40 41  0  0  0  0  0  0  0  0999 V2000
    0.8763   -0.1229    0.4872 C   0  0  0  0  0  0  0  0  0  0  0  0
    2.3774   -0.0711    0.3437 C   0  0  0  0  0  0  0  0  0  0  0  0
    3.0694    1.1438    0.4201 C   0  0  0  0  0  0  0  0  0  0  0  0
    4.4654    1.2142    0.3271 C   0  0  0  0  0  0  0  0  0  0  0  0
    5.1282    2.5732    0.3303 C   0  0  0  0  0  0  0  0  0  0  0  0
    5.2158    0.0196    0.1690 C   0  0  0  0  0  0  0  0  0  0  0  0
    6.7325    0.0752    0.0776 C   0  0  0  0  0  0  0  0  0  0  0  0
    7.5154    0.2740    1.4216 C   0  0  1  0  0  0  0  0  0  0  0  0
    7.3491   -0.8426    2.4738 C   0  0  0  0  0  0  0  0  0  0  0  0
    8.2647   -1.3579    3.0535 O   0  0  0  0  0  0  0  0  0  0  0  0
    6.0773   -1.1687    2.7758 O   0  0  0  0  0  0  0  0  0  0  0  0
    8.9842    0.5430    1.1707 C   0  0  0  0  0  0  0  0  0  0  0  0
    9.8014   -0.4390    0.5897 C   0  0  0  0  0  0  0  0  0  0  0  0
    9.2422   -1.6153    0.2578 F   0  0  0  0  0  0  0  0  0  0  0  0
   11.1550   -0.2626    0.3301 C   0  0  0  0  0  0  0  0  0  0  0  0
   11.7455    0.9590    0.6587 C   0  0  0  0  0  0  0  0  0  0  0  0
   10.9829    1.9736    1.2360 C   0  0  0  0  0  0  0  0  0  0  0  0
    9.6231    1.7557    1.4838 C   0  0  0  0  0  0  0  0  0  0  0  0
    8.7226    3.0695    2.2284 Cl  0  0  0  0  0  0  0  0  0  0  0  0
    4.5272   -1.2158    0.0487 C   0  0  0  0  0  0  0  0  0  0  0  0
    5.2582   -2.5165   -0.2039 C   0  0  0  0  0  0  0  0  0  0  0  0
    3.1277   -1.2347    0.1438 C   0  0  0  0  0  0  0  0  0  0  0  0
    0.3991    0.7806    0.0774 H   0  0  0  0  0  0  0  0  0  0  0  0
    0.5834   -0.1911    1.5498 H   0  0  0  0  0  0  0  0  0  0  0  0
    0.4502   -0.9990   -0.0247 H   0  0  0  0  0  0  0  0  0  0  0  0
    2.5041    2.0724    0.5443 H   0  0  0  0  0  0  0  0  0  0  0  0
    4.3880    3.3689    0.4958 H   0  0  0  0  0  0  0  0  0  0  0  0
    5.6196    2.7765   -0.6371 H   0  0  0  0  0  0  0  0  0  0  0  0
    5.9071    2.6803    1.1000 H   0  0  0  0  0  0  0  0  0  0  0  0
    7.0214    0.9214   -0.5643 H   0  0  0  0  0  0  0  0  0  0  0  0
    7.1180   -0.8255   -0.4131 H   0  0  0  0  0  0  0  0  0  0  0  0
    7.1007    1.1660    1.9138 H   0  0  0  0  0  0  0  0  0  0  0  0
    5.4451   -0.7150    2.1900 H   0  0  0  0  0  0  0  0  0  0  0  0
   11.7198   -1.0809   -0.1191 H   0  0  0  0  0  0  0  0  0  0  0  0
   12.8082    1.1215    0.4654 H   0  0  0  0  0  0  0  0  0  0  0  0
   11.4287    2.9328    1.5008 H   0  0  0  0  0  0  0  0  0  0  0  0
    5.8169   -2.4901   -1.1542 H   0  0  0  0  0  0  0  0  0  0  0  0
    4.5494   -3.3546   -0.2610 H   0  0  0  0  0  0  0  0  0  0  0  0
    5.9819   -2.7505    0.5917 H   0  0  0  0  0  0  0  0  0  0  0  0
    2.6098   -2.1939    0.0532 H   0  0  0  0  0  0  0  0  0  0  0  0
  1  2  1  0
  1 23  1  0
  1 24  1  0
  1 25  1  0
  2  3  2  0
  2 22  1  0
  3  4  1  0
  3 26  1  0
  4  5  1  0
  4  6  2  0
  5 27  1  0
  5 28  1  0
  5 29  1  0
  6  7  1  0
  6 20  1  0
  7  8  1  0
  7 30  1  0
  7 31  1  0
  8  9  1  0
  8 12  1  0
  8 32  1  1
  9 10  2  0
  9 11  1  0
 11 33  1  0
 12 13  2  0
 12 18  1  0
 13 14  1  0
 13 15  1  0
 15 16  2  0
 15 34  1  0
 16 17  1  0
 16 35  1  0
 17 18  2  0
 17 36  1  0
 18 19  1  0
 20 21  1  0
 20 22  2  0
 21 37  1  0
 21 38  1  0
 21 39  1  0
 22 40  1  0
M  END

