
     RDKit          3D

 32 32  0  0  0  0  0  0  0  0999 V2000
    1.0776   -0.0921   -0.1812 C   0  0  0  0  0  0  0  0  0  0  0  0
    2.6168   -0.0896   -0.1127 C   0  0  1  0  0  0  0  0  0  0  0  0
    3.1651   -1.0879   -1.1535 C   0  0  0  0  0  0  0  0  0  0  0  0
    3.1161    1.3273   -0.4617 C   0  0  0  0  0  0  0  0  0  0  0  0
    3.0741   -0.4482    1.3377 C   0  0  1  0  0  0  0  0  0  0  0  0
    2.4814   -1.7602    1.9233 C   0  0  0  0  0  0  0  0  0  0  0  0
    1.2894   -1.4658    2.7091 N   0  0  0  0  0  0  0  0  0  0  0  0
    4.5306   -0.4201    1.4374 N   0  0  0  0  0  0  0  0  0  0  0  0
    5.1915   -0.2473    2.6186 C   0  0  0  0  0  0  0  0  0  0  0  0
    6.6117   -0.2736    2.6794 C   0  0  0  0  0  0  0  0  0  0  0  0
    7.1931   -0.0608    3.9088 C   0  0  0  0  0  0  0  0  0  0  0  0
    6.3416    0.1675    5.0078 C   0  0  0  0  0  0  0  0  0  0  0  0
    5.0199    0.1741    4.8933 N   0  0  0  0  0  0  0  0  0  0  0  0
    4.4434   -0.0372    3.7204 N   0  0  0  0  0  0  0  0  0  0  0  0
    0.7472    0.2318   -1.1819 H   0  0  0  0  0  0  0  0  0  0  0  0
    0.6440    0.5905    0.5647 H   0  0  0  0  0  0  0  0  0  0  0  0
    0.6517   -1.0866    0.0128 H   0  0  0  0  0  0  0  0  0  0  0  0
    2.7955   -0.8291   -2.1586 H   0  0  0  0  0  0  0  0  0  0  0  0
    2.8478   -2.1215   -0.9439 H   0  0  0  0  0  0  0  0  0  0  0  0
    4.2671   -1.0778   -1.2166 H   0  0  0  0  0  0  0  0  0  0  0  0
    2.7868    1.6167   -1.4728 H   0  0  0  0  0  0  0  0  0  0  0  0
    4.2141    1.3964   -0.4308 H   0  0  0  0  0  0  0  0  0  0  0  0
    2.7165    2.0702    0.2472 H   0  0  0  0  0  0  0  0  0  0  0  0
    2.7118    0.3571    1.9945 H   0  0  0  0  0  0  0  0  0  0  0  0
    3.2829   -2.2635    2.4986 H   0  0  0  0  0  0  0  0  0  0  0  0
    2.2054   -2.4560    1.1126 H   0  0  0  0  0  0  0  0  0  0  0  0
    1.5722   -0.9589    3.5506 H   0  0  0  0  0  0  0  0  0  0  0  0
    0.8481   -2.3286    3.0270 H   0  0  0  0  0  0  0  0  0  0  0  0
    5.0755   -0.7299    0.6440 H   0  0  0  0  0  0  0  0  0  0  0  0
    7.2063   -0.4502    1.7789 H   0  0  0  0  0  0  0  0  0  0  0  0
    8.2789   -0.0652    4.0335 H   0  0  0  0  0  0  0  0  0  0  0  0
    6.7366    0.3469    6.0121 H   0  0  0  0  0  0  0  0  0  0  0  0
  2  1  1  1
  1 15  1  0
  1 16  1  0
  1 17  1  0
  2  3  1  0
  2  4  1  0
  2  5  1  0
  3 18  1  0
  3 19  1  0
  3 20  1  0
  4 21  1  0
  4 22  1  0
  4 23  1  0
  5  6  1  0
  5  8  1  0
  5 24  1  1
  6  7  1  0
  6 25  1  0
  6 26  1  0
  7 27  1  0
  7 28  1  0
  8  9  1  0
  8 29  1  0
  9 10  2  0
  9 14  1  0
 10 11  1  0
 10 30  1  0
 11 12  2  0
 11 31  1  0
 12 13  1  0
 12 32  1  0
 13 14  2  0
M  END

