
     RDKit          3D

 17 18  0  0  0  0  0  0  0  0999 V2000
    1.6788    0.6609   -0.6553 O   0  0  0  0  0  0  0  0  0  0  0  0
    2.2243   -0.1322    0.0750 C   0  0  0  0  0  0  0  0  0  0  0  0
    2.9288    0.2186    1.3254 C   0  0  0  0  0  0  0  0  0  0  0  0
    3.5159   -0.7402    2.0952 N   0  0  0  0  0  0  0  0  0  0  0  0
    4.0556   -0.1139    3.1219 C   0  0  0  0  0  0  0  0  0  0  0  0
    4.7958   -0.5922    4.2414 C   0  0  0  0  0  0  0  0  0  0  0  0
    5.1537   -2.6630    4.3802 I   0  0  0  0  0  0  0  0  0  0  0  0
    5.2547    0.2873    5.1941 C   0  0  0  0  0  0  0  0  0  0  0  0
    4.9840    1.6828    5.0533 C   0  0  0  0  0  0  0  0  0  0  0  0
    5.6225    2.8861    6.3760 Br  0  0  0  0  0  0  0  0  0  0  0  0
    4.2763    2.1751    3.9907 C   0  0  0  0  0  0  0  0  0  0  0  0
    3.8253    1.2804    3.0475 N   0  0  0  0  0  0  0  0  0  0  0  0
    3.1029    1.4825    1.8951 C   0  0  0  0  0  0  0  0  0  0  0  0
    2.6056    3.0425    1.4119 Cl  0  0  0  0  0  0  0  0  0  0  0  0
    2.2426   -1.2318   -0.1321 H   0  0  0  0  0  0  0  0  0  0  0  0
    5.8218   -0.0634    6.0560 H   0  0  0  0  0  0  0  0  0  0  0  0
    4.0391    3.2254    3.8296 H   0  0  0  0  0  0  0  0  0  0  0  0
  1  2  2  0
  2  3  1  0
  2 15  1  0
  3  4  1  0
  3 13  2  0
  4  5  2  0
  5  6  1  0
  5 12  1  0
  6  7  1  0
  6  8  2  0
  8  9  1  0
  8 16  1  0
  9 10  1  0
  9 11  2  0
 11 12  1  0
 11 17  1  0
 12 13  1  0
 13 14  1  0
M  END

