
     RDKit          3D

 44 45  0  0  0  0  0  0  0  0999 V2000
    1.7150    0.8800    0.8858 C   0  0  0  0  0  0  0  0  0  0  0  0
    2.8153    0.7036   -0.1781 C   0  0  1  0  0  0  0  0  0  0  0  0
    2.6407    1.7903   -1.2512 C   0  0  0  0  0  0  0  0  0  0  0  0
    4.2124    0.8346    0.4609 C   0  0  0  0  0  0  0  0  0  0  0  0
    2.6831   -0.6482   -0.8000 N   0  0  0  0  0  0  0  0  0  0  0  0
    2.7988   -0.8995   -2.2382 C   0  0  0  0  0  0  0  0  0  0  0  0
    2.3749   -2.3767   -2.3881 C   0  0  2  0  0  0  0  0  0  0  0  0
    0.9390   -2.5162   -2.5762 N   0  0  0  0  0  0  0  0  0  0  0  0
    0.3836   -2.9985   -3.7293 C   0  0  0  0  0  0  0  0  0  0  0  0
    1.0644   -3.3449   -4.6869 O   0  0  0  0  0  0  0  0  0  0  0  0
   -1.1441   -3.0788   -3.7316 C   0  0  1  0  0  0  0  0  0  0  0  0
   -1.7591   -2.1911   -4.8377 C   0  0  0  0  0  0  0  0  0  0  0  0
   -1.5466   -2.7437   -6.2588 C   0  0  0  0  0  0  0  0  0  0  0  0
   -1.9622   -4.2019   -6.3833 C   0  0  0  0  0  0  0  0  0  0  0  0
   -2.6535   -4.6081   -7.2914 O   0  0  0  0  0  0  0  0  0  0  0  0
   -1.4199   -5.1144   -5.2937 C   0  0  0  0  0  0  0  0  0  0  0  0
   -1.6348   -4.5372   -3.8828 C   0  0  0  0  0  0  0  0  0  0  0  0
    2.8405   -2.9802   -1.0586 C   0  0  0  0  0  0  0  0  0  0  0  0
    2.7870   -1.8142   -0.0696 C   0  0  0  0  0  0  0  0  0  0  0  0
    2.8521   -1.9117    1.1419 O   0  0  0  0  0  0  0  0  0  0  0  0
    1.7963    1.8769    1.3468 H   0  0  0  0  0  0  0  0  0  0  0  0
    1.8029    0.1184    1.6701 H   0  0  0  0  0  0  0  0  0  0  0  0
    0.7174    0.7982    0.4247 H   0  0  0  0  0  0  0  0  0  0  0  0
    2.7199    2.7775   -0.7723 H   0  0  0  0  0  0  0  0  0  0  0  0
    1.6525    1.7355   -1.7340 H   0  0  0  0  0  0  0  0  0  0  0  0
    3.4156    1.7401   -2.0312 H   0  0  0  0  0  0  0  0  0  0  0  0
    4.3312    1.8278    0.9216 H   0  0  0  0  0  0  0  0  0  0  0  0
    5.0027    0.7178   -0.2987 H   0  0  0  0  0  0  0  0  0  0  0  0
    4.3552    0.0715    1.2380 H   0  0  0  0  0  0  0  0  0  0  0  0
    3.8364   -0.7557   -2.5975 H   0  0  0  0  0  0  0  0  0  0  0  0
    2.1463   -0.2439   -2.8290 H   0  0  0  0  0  0  0  0  0  0  0  0
    2.8354   -2.8369   -3.2709 H   0  0  0  0  0  0  0  0  0  0  0  0
    0.3270   -2.2301   -1.8206 H   0  0  0  0  0  0  0  0  0  0  0  0
   -1.5082   -2.7033   -2.7602 H   0  0  0  0  0  0  0  0  0  0  0  0
   -1.3589   -1.1658   -4.7686 H   0  0  0  0  0  0  0  0  0  0  0  0
   -2.8422   -2.1139   -4.6381 H   0  0  0  0  0  0  0  0  0  0  0  0
   -0.4722   -2.6968   -6.5046 H   0  0  0  0  0  0  0  0  0  0  0  0
   -2.1031   -2.1588   -7.0058 H   0  0  0  0  0  0  0  0  0  0  0  0
   -0.3371   -5.2206   -5.4765 H   0  0  0  0  0  0  0  0  0  0  0  0
   -1.8915   -6.1022   -5.4007 H   0  0  0  0  0  0  0  0  0  0  0  0
   -1.1461   -5.1817   -3.1333 H   0  0  0  0  0  0  0  0  0  0  0  0
   -2.7131   -4.5513   -3.6466 H   0  0  0  0  0  0  0  0  0  0  0  0
    3.8886   -3.3196   -1.1195 H   0  0  0  0  0  0  0  0  0  0  0  0
    2.2384   -3.8302   -0.7092 H   0  0  0  0  0  0  0  0  0  0  0  0
  2  1  1  1
  1 21  1  0
  1 22  1  0
  1 23  1  0
  2  3  1  0
  2  4  1  0
  2  5  1  0
  3 24  1  0
  3 25  1  0
  3 26  1  0
  4 27  1  0
  4 28  1  0
  4 29  1  0
  5  6  1  0
  5 19  1  0
  6  7  1  0
  6 30  1  0
  6 31  1  0
  7  8  1  0
  7 18  1  0
  7 32  1  6
  8  9  1  0
  8 33  1  0
  9 10  2  0
  9 11  1  0
 11 12  1  0
 11 17  1  0
 11 34  1  1
 12 13  1  0
 12 35  1  0
 12 36  1  0
 13 14  1  0
 13 37  1  0
 13 38  1  0
 14 15  2  0
 14 16  1  0
 16 17  1  0
 16 39  1  0
 16 40  1  0
 17 41  1  0
 17 42  1  0
 18 19  1  0
 18 43  1  0
 18 44  1  0
 19 20  2  0
M  END

