
     RDKit          3D

 42 43  0  0  0  0  0  0  0  0999 V2000
    3.1933    0.2345    2.9858 C   0  0  0  0  0  0  0  0  0  0  0  0
    3.4736    1.7252    3.1432 C   0  0  0  0  0  0  0  0  0  0  0  0
    3.9852    2.1616    4.1593 O   0  0  0  0  0  0  0  0  0  0  0  0
    3.1546    2.5505    2.0758 N   0  0  0  0  0  0  0  0  0  0  0  0
    2.2951    2.1272    0.9728 C   0  0  0  0  0  0  0  0  0  0  0  0
    0.7833    2.2040    1.2512 C   0  0  0  0  0  0  0  0  0  0  0  0
    0.2898    3.5473    1.4942 N   0  0  0  0  0  0  0  0  0  0  0  0
   -0.0086    4.3906    0.4577 C   0  0  0  0  0  0  0  0  0  0  0  0
    0.1351    4.0426   -0.7073 O   0  0  0  0  0  0  0  0  0  0  0  0
   -0.5332    5.7548    0.8180 C   0  0  0  0  0  0  0  0  0  0  0  0
   -1.1461    6.4972   -0.1990 C   0  0  0  0  0  0  0  0  0  0  0  0
   -1.6519    7.7672    0.0710 C   0  0  0  0  0  0  0  0  0  0  0  0
   -1.5536    8.3424    1.3467 C   0  0  0  0  0  0  0  0  0  0  0  0
   -2.1066    9.7201    1.6100 C   0  0  0  0  0  0  0  0  0  0  0  0
   -0.9199    7.6086    2.3779 C   0  0  0  0  0  0  0  0  0  0  0  0
   -0.7735    8.1935    3.7612 C   0  0  0  0  0  0  0  0  0  0  0  0
   -0.4229    6.3305    2.0938 C   0  0  0  0  0  0  0  0  0  0  0  0
    3.4736    3.9529    2.2096 C   0  0  1  0  0  0  0  0  0  0  0  0
    4.9101    4.3810    2.2943 C   0  0  0  0  0  0  0  0  0  0  0  0
    4.1121    4.6799    1.0524 C   0  0  0  0  0  0  0  0  0  0  0  0
    3.5608   -0.2626    3.8915 H   0  0  0  0  0  0  0  0  0  0  0  0
    3.7097   -0.1855    2.1079 H   0  0  0  0  0  0  0  0  0  0  0  0
    2.1197    0.0173    2.8738 H   0  0  0  0  0  0  0  0  0  0  0  0
    2.5420    1.0957    0.6805 H   0  0  0  0  0  0  0  0  0  0  0  0
    2.5115    2.7595    0.1009 H   0  0  0  0  0  0  0  0  0  0  0  0
    0.5223    1.5822    2.1216 H   0  0  0  0  0  0  0  0  0  0  0  0
    0.2578    1.7967    0.3722 H   0  0  0  0  0  0  0  0  0  0  0  0
    0.0822    3.8281    2.4423 H   0  0  0  0  0  0  0  0  0  0  0  0
   -1.2137    6.0568   -1.1952 H   0  0  0  0  0  0  0  0  0  0  0  0
   -2.1356    8.3336   -0.7299 H   0  0  0  0  0  0  0  0  0  0  0  0
   -2.5651   10.1472    0.7067 H   0  0  0  0  0  0  0  0  0  0  0  0
   -1.3201   10.4155    1.9499 H   0  0  0  0  0  0  0  0  0  0  0  0
   -2.8736    9.7054    2.4031 H   0  0  0  0  0  0  0  0  0  0  0  0
   -0.2014    9.1367    3.7463 H   0  0  0  0  0  0  0  0  0  0  0  0
   -0.2555    7.4996    4.4391 H   0  0  0  0  0  0  0  0  0  0  0  0
   -1.7539    8.4301    4.2087 H   0  0  0  0  0  0  0  0  0  0  0  0
    0.0847    5.7944    2.9010 H   0  0  0  0  0  0  0  0  0  0  0  0
    2.7680    4.5317    2.8186 H   0  0  0  0  0  0  0  0  0  0  0  0
    5.6666    3.5952    2.2364 H   0  0  0  0  0  0  0  0  0  0  0  0
    5.1563    5.1929    2.9834 H   0  0  0  0  0  0  0  0  0  0  0  0
    4.3450    4.1039    0.1523 H   0  0  0  0  0  0  0  0  0  0  0  0
    3.7877    5.7051    0.8546 H   0  0  0  0  0  0  0  0  0  0  0  0
  1  2  1  0
  1 21  1  0
  1 22  1  0
  1 23  1  0
  2  3  2  0
  2  4  1  0
  4  5  1  0
  4 18  1  0
  5  6  1  0
  5 24  1  0
  5 25  1  0
  6  7  1  0
  6 26  1  0
  6 27  1  0
  7  8  1  0
  7 28  1  0
  8  9  2  0
  8 10  1  0
 10 11  2  0
 10 17  1  0
 11 12  1  0
 11 29  1  0
 12 13  2  0
 12 30  1  0
 13 14  1  0
 13 15  1  0
 14 31  1  0
 14 32  1  0
 14 33  1  0
 15 16  1  0
 15 17  2  0
 16 34  1  0
 16 35  1  0
 16 36  1  0
 17 37  1  0
 18 19  1  0
 18 20  1  0
 18 38  1  1
 19 20  1  0
 19 39  1  0
 19 40  1  0
 20 41  1  0
 20 42  1  0
M  END

