
     RDKit          3D

 33 36  0  0  0  0  0  0  0  0999 V2000
    4.5793    0.6415    2.0714 O   0  0  0  0  0  0  0  0  0  0  0  0
    3.8311    0.4181    0.8945 C   0  0  0  0  0  0  0  0  0  0  0  0
    2.9272    1.6114    0.6310 C   0  0  2  0  0  0  0  0  0  0  0  0
    2.2396    1.3496   -0.1909 H   0  0  0  0  0  0  0  0  0  0  0  0
    3.7297    2.7399    0.2204 O   0  0  0  0  0  0  0  0  0  0  0  0
    3.5960    3.8143    1.1059 C   0  0  1  0  0  0  0  0  0  0  0  0
    4.5854    4.2689    1.2742 H   0  0  0  0  0  0  0  0  0  0  0  0
    2.7408    4.8480    0.4684 N   0  0  0  0  0  0  0  0  0  0  0  0
    2.3328    4.8850   -0.8481 C   0  0  0  0  0  0  0  0  0  0  0  0
    1.6814    5.9810   -1.1698 N   0  0  0  0  0  0  0  0  0  0  0  0
    1.6700    6.7274   -0.0238 C   0  0  0  0  0  0  0  0  0  0  0  0
    2.3323    6.0509    1.0147 C   0  0  0  0  0  0  0  0  0  0  0  0
    2.5315    6.4808    2.2826 N   0  0  0  0  0  0  0  0  0  0  0  0
    2.0446    7.6550    2.5535 C   0  0  0  0  0  0  0  0  0  0  0  0
    1.3695    8.4205    1.6294 N   0  0  0  0  0  0  0  0  0  0  0  0
    0.7914    9.6759    1.7487 C   0  0  0  0  0  0  0  0  0  0  0  0
    0.2560    9.9472    0.5090 C   0  0  0  0  0  0  0  0  0  0  0  0
    0.4685    8.9283   -0.3802 N   0  0  0  0  0  0  0  0  0  0  0  0
    1.1349    8.0124    0.2868 C   0  0  0  0  0  0  0  0  0  0  0  0
    2.9753    3.2395    2.3829 C   0  0  0  0  0  0  0  0  0  0  0  0
    2.1021    2.0972    1.8464 C   0  0  1  0  0  0  0  0  0  0  0  0
    1.9883    1.2946    2.5885 H   0  0  0  0  0  0  0  0  0  0  0  0
    0.7904    2.4899    1.4993 O   0  0  0  0  0  0  0  0  0  0  0  0
    5.2149   -0.0759    2.1791 H   0  0  0  0  0  0  0  0  0  0  0  0
    3.1912   -0.4842    0.9786 H   0  0  0  0  0  0  0  0  0  0  0  0
    4.4845    0.2853    0.0107 H   0  0  0  0  0  0  0  0  0  0  0  0
    2.5603    4.0608   -1.5216 H   0  0  0  0  0  0  0  0  0  0  0  0
    2.1559    8.0880    3.5521 H   0  0  0  0  0  0  0  0  0  0  0  0
    0.8161   10.2376    2.6784 H   0  0  0  0  0  0  0  0  0  0  0  0
   -0.2824   10.8488    0.2165 H   0  0  0  0  0  0  0  0  0  0  0  0
    2.4169    3.9790    2.9695 H   0  0  0  0  0  0  0  0  0  0  0  0
    3.7852    2.8198    2.9943 H   0  0  0  0  0  0  0  0  0  0  0  0
    0.8332    3.2733    0.9341 H   0  0  0  0  0  0  0  0  0  0  0  0
  1  2  1  0
  1 24  1  0
  2  3  1  0
  2 25  1  0
  2 26  1  0
  3  4  1  6
  3  5  1  0
  3 21  1  0
  5  6  1  0
  6  7  1  1
  6  8  1  0
  6 20  1  0
  8  9  1  0
  8 12  1  0
  9 10  2  0
  9 27  1  0
 10 11  1  0
 11 12  2  0
 11 19  1  0
 12 13  1  0
 13 14  2  0
 14 15  1  0
 14 28  1  0
 15 16  1  0
 15 19  1  0
 16 17  2  0
 16 29  1  0
 17 18  1  0
 17 30  1  0
 18 19  2  0
 20 21  1  0
 20 31  1  0
 20 32  1  0
 21 22  1  1
 21 23  1  0
 23 33  1  0
M  END

