
     RDKit          3D

 26 27  0  0  0  0  0  0  0  0999 V2000
    1.1166    0.2504    0.1219 C   0  0  0  0  0  0  0  0  0  0  0  0
    2.5680    0.1706    0.0087 N   0  0  0  0  0  0  0  0  0  0  0  0
    3.4907    1.1929   -0.0139 C   0  0  0  0  0  0  0  0  0  0  0  0
    3.1931    2.6358   -0.0446 C   0  0  0  0  0  0  0  0  0  0  0  0
    2.0697    3.1867   -0.6890 C   0  0  0  0  0  0  0  0  0  0  0  0
    1.8712    4.5697   -0.7012 C   0  0  0  0  0  0  0  0  0  0  0  0
    2.7822    5.4288   -0.0854 C   0  0  0  0  0  0  0  0  0  0  0  0
    3.9091    4.8794    0.5371 C   0  0  0  0  0  0  0  0  0  0  0  0
    5.0686    5.9417    1.3029 Cl  0  0  0  0  0  0  0  0  0  0  0  0
    4.1230    3.5032    0.5612 C   0  0  0  0  0  0  0  0  0  0  0  0
    4.7295    0.7161    0.0161 N   0  0  0  0  0  0  0  0  0  0  0  0
    4.6057   -0.6244    0.0471 C   0  0  0  0  0  0  0  0  0  0  0  0
    6.1122   -1.7679    0.0844 Br  0  0  0  0  0  0  0  0  0  0  0  0
    3.2786   -1.0214    0.0379 C   0  0  0  0  0  0  0  0  0  0  0  0
    2.6421   -2.3720    0.0919 C   0  0  0  0  0  0  0  0  0  0  0  0
    1.8886   -2.6026    1.2767 O   0  0  0  0  0  0  0  0  0  0  0  0
    0.8352    1.1724    0.6455 H   0  0  0  0  0  0  0  0  0  0  0  0
    0.7689   -0.6125    0.7041 H   0  0  0  0  0  0  0  0  0  0  0  0
    0.6313    0.2404   -0.8676 H   0  0  0  0  0  0  0  0  0  0  0  0
    1.3632    2.5464   -1.2171 H   0  0  0  0  0  0  0  0  0  0  0  0
    0.9983    4.9866   -1.2097 H   0  0  0  0  0  0  0  0  0  0  0  0
    2.6343    6.5097   -0.0908 H   0  0  0  0  0  0  0  0  0  0  0  0
    5.0087    3.0858    1.0396 H   0  0  0  0  0  0  0  0  0  0  0  0
    3.4382   -3.1249   -0.0446 H   0  0  0  0  0  0  0  0  0  0  0  0
    1.9279   -2.5036   -0.7377 H   0  0  0  0  0  0  0  0  0  0  0  0
    2.4876   -2.5084    2.0306 H   0  0  0  0  0  0  0  0  0  0  0  0
  1  2  1  0
  1 17  1  0
  1 18  1  0
  1 19  1  0
  2  3  1  0
  2 14  1  0
  3  4  1  0
  3 11  2  0
  4  5  2  0
  4 10  1  0
  5  6  1  0
  5 20  1  0
  6  7  2  0
  6 21  1  0
  7  8  1  0
  7 22  1  0
  8  9  1  0
  8 10  2  0
 10 23  1  0
 11 12  1  0
 12 13  1  0
 12 14  2  0
 14 15  1  0
 15 16  1  0
 15 24  1  0
 15 25  1  0
 16 26  1  0
M  END

