
     RDKit          3D

 46 47  0  0  0  0  0  0  0  0999 V2000
    1.0964   -1.5860   -0.0730 C   0  0  0  0  0  0  0  0  0  0  0  0
    2.5903   -1.3242   -0.0285 C   0  0  0  0  0  0  0  0  0  0  0  0
    2.9777   -0.6681   -1.2157 O   0  0  0  0  0  0  0  0  0  0  0  0
    4.3460   -0.3733   -1.2978 C   0  0  0  0  0  0  0  0  0  0  0  0
    4.6238    0.3679   -2.6114 C   0  0  1  0  0  0  0  0  0  0  0  0
    3.8161    1.6664   -2.7087 C   0  0  0  0  0  0  0  0  0  0  0  0
    6.1383    0.5795   -2.7410 C   0  0  0  0  0  0  0  0  0  0  0  0
    6.6582    1.0695   -4.4103 S   0  0  1  0  0  0  0  0  0  0  0  0
    6.1657    0.0388   -5.3355 O   0  0  0  0  0  0  0  0  0  0  0  0
    6.3226    2.4852   -4.6162 O   0  0  0  0  0  0  0  0  0  0  0  0
    8.3460    0.9511   -4.3186 N   0  0  0  0  0  0  0  0  0  0  0  0
    8.9814   -0.2130   -4.9501 C   0  0  0  0  0  0  0  0  0  0  0  0
    9.3672    0.0644   -6.4110 C   0  0  0  0  0  0  0  0  0  0  0  0
   10.1784    1.3581   -6.5994 C   0  0  2  0  0  0  0  0  0  0  0  0
   11.5801    1.2246   -6.1551 N   0  0  0  0  0  0  0  0  0  0  0  0
   12.5183    2.2405   -6.1834 C   0  0  0  0  0  0  0  0  0  0  0  0
   13.7031    1.6757   -5.7675 C   0  0  0  0  0  0  0  0  0  0  0  0
   13.5257    0.3462   -5.4893 N   0  0  0  0  0  0  0  0  0  0  0  0
   12.2575    0.1057   -5.7352 C   0  0  0  0  0  0  0  0  0  0  0  0
    9.4677    2.5235   -5.8811 C   0  0  0  0  0  0  0  0  0  0  0  0
    9.1295    2.1903   -4.4255 C   0  0  0  0  0  0  0  0  0  0  0  0
    0.7675   -2.1034    0.8416 H   0  0  0  0  0  0  0  0  0  0  0  0
    0.8400   -2.2132   -0.9407 H   0  0  0  0  0  0  0  0  0  0  0  0
    0.5393   -0.6401   -0.1581 H   0  0  0  0  0  0  0  0  0  0  0  0
    3.1482   -2.2785    0.0808 H   0  0  0  0  0  0  0  0  0  0  0  0
    2.8507   -0.7030    0.8547 H   0  0  0  0  0  0  0  0  0  0  0  0
    4.9477   -1.3070   -1.2542 H   0  0  0  0  0  0  0  0  0  0  0  0
    4.6651    0.2526   -0.4345 H   0  0  0  0  0  0  0  0  0  0  0  0
    4.3162   -0.3073   -3.4282 H   0  0  0  0  0  0  0  0  0  0  0  0
    4.1122    2.3718   -1.9130 H   0  0  0  0  0  0  0  0  0  0  0  0
    2.7467    1.4466   -2.5873 H   0  0  0  0  0  0  0  0  0  0  0  0
    3.9730    2.1677   -3.6734 H   0  0  0  0  0  0  0  0  0  0  0  0
    6.6934   -0.3504   -2.5449 H   0  0  0  0  0  0  0  0  0  0  0  0
    6.5200    1.3643   -2.0693 H   0  0  0  0  0  0  0  0  0  0  0  0
    8.2915   -1.0654   -4.9072 H   0  0  0  0  0  0  0  0  0  0  0  0
    9.8647   -0.4702   -4.3427 H   0  0  0  0  0  0  0  0  0  0  0  0
    8.4348    0.1767   -6.9859 H   0  0  0  0  0  0  0  0  0  0  0  0
    9.8970   -0.7997   -6.8416 H   0  0  0  0  0  0  0  0  0  0  0  0
   10.2122    1.5844   -7.6786 H   0  0  0  0  0  0  0  0  0  0  0  0
   12.2727    3.2494   -6.5040 H   0  0  0  0  0  0  0  0  0  0  0  0
   14.6713    2.1638   -5.6573 H   0  0  0  0  0  0  0  0  0  0  0  0
   11.7784   -0.8653   -5.6304 H   0  0  0  0  0  0  0  0  0  0  0  0
    8.5290    2.7398   -6.4159 H   0  0  0  0  0  0  0  0  0  0  0  0
   10.0772    3.4390   -5.9263 H   0  0  0  0  0  0  0  0  0  0  0  0
    8.5640    3.0111   -3.9681 H   0  0  0  0  0  0  0  0  0  0  0  0
   10.0510    2.0471   -3.8351 H   0  0  0  0  0  0  0  0  0  0  0  0
  1  2  1  0
  1 22  1  0
  1 23  1  0
  1 24  1  0
  2  3  1  0
  2 25  1  0
  2 26  1  0
  3  4  1  0
  4  5  1  0
  4 27  1  0
  4 28  1  0
  5  6  1  0
  5  7  1  0
  5 29  1  6
  6 30  1  0
  6 31  1  0
  6 32  1  0
  8  7  1  1
  7 33  1  0
  7 34  1  0
  8  9  2  0
  8 10  2  0
  8 11  1  0
 11 12  1  0
 11 21  1  0
 12 13  1  0
 12 35  1  0
 12 36  1  0
 13 14  1  0
 13 37  1  0
 13 38  1  0
 14 15  1  0
 14 20  1  0
 14 39  1  6
 15 16  1  0
 15 19  1  0
 16 17  2  0
 16 40  1  0
 17 18  1  0
 17 41  1  0
 18 19  2  0
 19 42  1  0
 20 21  1  0
 20 43  1  0
 20 44  1  0
 21 45  1  0
 21 46  1  0
M  END

